
This summary file was generated by HydroDyn v2.05.01 on 19-Feb-2019 at 10:38:17.

WAMIT Model
-----------
  Displaced volume (m^3)                 :     1.391700E+04
  X-offset of the center of buoyancy (m) :     0.000000E+00
  Y-offset of the center of buoyancy (m) :     0.000000E+00


  Buoyancy loads from members modelled with WAMIT, summed about ( 0.0, 0.0, 0.0 )
                                BuoyFxi               BuoyFyi               BuoyFzi               BuoyMxi               BuoyMyi               BuoyMzi 
                                  (N)                   (N)                   (N)                  (N-m)                 (N-m)                 (N-m)  
  External:                 0.000000E+00          0.000000E+00          1.398911E+08          0.000000E+00          0.000000E+00          0.000000E+00



Volume Calculations(m^3)
------------------------
  Structure Volume     :    0.00000E+00
  Submerged Volume     :    0.00000E+00
  Marine Growth Volume :    0.00000E+00
  Ballasted Volume     :    9.38912E+03
              NOTE: Structure, Submerged and Marine Growth volumes are based on members not modelled with WAMIT
                      Ballasted volume is computed from all members which are marked as filled in the HydroDyn input file, regardless of PropPot flag



Buoyancy loads summed about ( 0.0, 0.0, 0.0 )
---------------------------------------------
                                BuoyFxi               BuoyFyi               BuoyFzi               BuoyMxi               BuoyMyi               BuoyMzi 
                                  (N)                   (N)                   (N)                  (N-m)                 (N-m)                 (N-m)  
 External:                  0.000000E+00          0.000000E+00          0.000000E+00          0.000000E+00          0.000000E+00          0.000000E+00
 Internal:                  0.000000E+00          0.000000E+00         -9.437774E+07          0.000000E+00          3.051758E+02          0.000000E+00
 Total   :                  0.000000E+00          0.000000E+00         -9.437774E+07          0.000000E+00          3.051758E+02          0.000000E+00
              NOTE: External buoyancy is based on members not modelled with WAMIT
                      Internal buoyancy is computed from all members which are marked as filled in the HydroDyn input file, regardless of PropPot flag
                    Total buoyancy does not include WAMIT-modelled buoyancy contribution



Weight loads about ( 0.0, 0.0, 0.0 )
------------------------------------
                                 MGFxi                 MGFyi                 MGFzi                 MGMxi                 MGMyi                 MGMzi  
                                  (N)                   (N)                   (N)                  (N-m)                 (N-m)                 (N-m)  
 Marine Growth:             0.000000E+00          0.000000E+00          0.000000E+00          0.000000E+00          0.000000E+00          0.000000E+00



Nodes


   i    JointIndx   JointOvrlp  InpMbrIndx     Nxi         Nyi         Nzi      InpMbrDist       R         dRdZ         t          tMG        MGDens      PropPot   FilledFlag   FillDens   FillFSLoc       Cd          Ca          Cp         AxCa        AxCp        JAxCd       JAxCa       JAxCp    NConn  Connection List
  (-)      (-)         (-)         (-)         (m)         (m)         (m)          (-)         (m)         (-)        (m)         (m)       (kg/m^3)      (-)         (-)       (kg/m^3)       (-)         (-)         (-)         (-)         (-)         (-)         (-)         (-)         (-)      (-)                  
     1           1           0           1      0.0000      0.0000    -20.0000      0.0000   3.250E+00   0.000E+00   3.000E-02   0.000E+00   0.000E+00           T           F   0.000E+00   0.000E+00   5.600E-01   0.000E+00   0.000E+00   0.000E+00   0.000E+00   0.000E+00   0.000E+00   1.000E+00      1     1
     2           2           0           1      0.0000      0.0000     10.0000      1.0000   3.250E+00   0.000E+00   3.000E-02   0.000E+00   0.000E+00           T           F   0.000E+00   0.000E+00   5.600E-01   0.000E+00   0.000E+00   0.000E+00   0.000E+00   0.000E+00   0.000E+00   1.000E+00      1   444
     3           3           0           5     14.4338     25.0000    -14.0000      1.0000   1.200E+01   0.000E+00   6.000E-02   0.000E+00   0.000E+00           T           F   0.000E+00   0.000E+00   6.800E-01   0.000E+00   0.000E+00   0.000E+00   0.000E+00   0.000E+00   0.000E+00   1.000E+00      1    33
     4           4           0           2     14.4338     25.0000     12.0000      1.0000   6.000E+00   0.000E+00   6.000E-02   0.000E+00   0.000E+00           T           F   0.000E+00   0.000E+00   6.100E-01   0.000E+00   0.000E+00   0.000E+00   0.000E+00   0.000E+00   0.000E+00   1.000E+00      1   461
     5           5           0           6    -28.8675      0.0000    -14.0000      1.0000   1.200E+01   0.000E+00   6.000E-02   0.000E+00   0.000E+00           T           F   0.000E+00   0.000E+00   6.800E-01   0.000E+00   0.000E+00   0.000E+00   0.000E+00   0.000E+00   0.000E+00   1.000E+00      1    34
     6           6           0           3    -28.8675      0.0000     12.0000      1.0000   6.000E+00   0.000E+00   6.000E-02   0.000E+00   0.000E+00           T           F   0.000E+00   0.000E+00   6.100E-01   0.000E+00   0.000E+00   0.000E+00   0.000E+00   0.000E+00   0.000E+00   1.000E+00      1   478
     7           7           0           7     14.4338    -25.0000    -14.0000      1.0000   1.200E+01   0.000E+00   6.000E-02   0.000E+00   0.000E+00           T           F   0.000E+00   0.000E+00   6.800E-01   0.000E+00   0.000E+00   0.000E+00   0.000E+00   0.000E+00   0.000E+00   1.000E+00      1    35
     8           8           0           4     14.4338    -25.0000     12.0000      1.0000   6.000E+00   0.000E+00   6.000E-02   0.000E+00   0.000E+00           T           F   0.000E+00   0.000E+00   6.100E-01   0.000E+00   0.000E+00   0.000E+00   0.000E+00   0.000E+00   0.000E+00   1.000E+00      1   495
     9           9           0           8     14.4338     25.0000    -20.0000      0.0000   1.200E+01   0.000E+00   6.000E-02   0.000E+00   0.000E+00           T           F   0.000E+00   0.000E+00   6.800E-01   0.000E+00   0.000E+00   0.000E+00   0.000E+00   9.600E+00   0.000E+00   1.000E+00      1     8
    10          10           0           9    -28.8675      0.0000    -20.0000      0.0000   1.200E+01   0.000E+00   6.000E-02   0.000E+00   0.000E+00           T           F   0.000E+00   0.000E+00   6.800E-01   0.000E+00   0.000E+00   0.000E+00   0.000E+00   9.600E+00   0.000E+00   1.000E+00      1     9
    11          11           0          10     14.4338    -25.0000    -20.0000      0.0000   1.200E+01   0.000E+00   6.000E-02   0.000E+00   0.000E+00           T           F   0.000E+00   0.000E+00   6.800E-01   0.000E+00   0.000E+00   0.000E+00   0.000E+00   9.600E+00   0.000E+00   1.000E+00      1    10
    12          12           0          11      9.2376     22.0000     10.0000      0.0000   8.000E-01   0.000E+00   1.750E-02   0.000E+00   0.000E+00           T           F   0.000E+00   0.000E+00   6.300E-01   0.000E+00   0.000E+00   0.000E+00   0.000E+00   0.000E+00   0.000E+00   1.000E+00      1   130
    13          13           0          11    -23.6713      3.0000     10.0000      1.0000   8.000E-01   0.000E+00   1.750E-02   0.000E+00   0.000E+00           T           F   0.000E+00   0.000E+00   6.300E-01   0.000E+00   0.000E+00   0.000E+00   0.000E+00   0.000E+00   0.000E+00   1.000E+00      1    11
    14          14           0          12    -23.6713     -3.0000     10.0000      0.0000   8.000E-01   0.000E+00   1.750E-02   0.000E+00   0.000E+00           T           F   0.000E+00   0.000E+00   6.300E-01   0.000E+00   0.000E+00   0.000E+00   0.000E+00   0.000E+00   0.000E+00   1.000E+00      1    12
    15          15           0          12      9.2376    -22.0000     10.0000      1.0000   8.000E-01   0.000E+00   1.750E-02   0.000E+00   0.000E+00           T           F   0.000E+00   0.000E+00   6.300E-01   0.000E+00   0.000E+00   0.000E+00   0.000E+00   0.000E+00   0.000E+00   1.000E+00      1   167
    16          16           0          13     14.4338    -19.0000     10.0000      0.0000   8.000E-01   0.000E+00   1.750E-02   0.000E+00   0.000E+00           T           F   0.000E+00   0.000E+00   6.300E-01   0.000E+00   0.000E+00   0.000E+00   0.000E+00   0.000E+00   0.000E+00   1.000E+00      1    13
    17          17           0          13     14.4338     19.0000     10.0000      1.0000   8.000E-01   0.000E+00   1.750E-02   0.000E+00   0.000E+00           T           F   0.000E+00   0.000E+00   6.300E-01   0.000E+00   0.000E+00   0.000E+00   0.000E+00   0.000E+00   0.000E+00   1.000E+00      1   204
    18          18           0          14      4.0415     19.0000    -17.0000      0.0000   8.000E-01   0.000E+00   1.750E-02   0.000E+00   0.000E+00           T           F   0.000E+00   0.000E+00   6.300E-01   0.000E+00   0.000E+00   0.000E+00   0.000E+00   0.000E+00   0.000E+00   1.000E+00      1   229
    19          19           0          14    -18.4752      6.0000    -17.0000      1.0000   8.000E-01   0.000E+00   1.750E-02   0.000E+00   0.000E+00           T           F   0.000E+00   0.000E+00   6.300E-01   0.000E+00   0.000E+00   0.000E+00   0.000E+00   0.000E+00   0.000E+00   1.000E+00      1    14
    20          20           0          15    -18.4752     -6.0000    -17.0000      0.0000   8.000E-01   0.000E+00   1.750E-02   0.000E+00   0.000E+00           T           F   0.000E+00   0.000E+00   6.300E-01   0.000E+00   0.000E+00   0.000E+00   0.000E+00   0.000E+00   0.000E+00   1.000E+00      1    15
    21          21           0          15      4.0415    -19.0000    -17.0000      1.0000   8.000E-01   0.000E+00   1.750E-02   0.000E+00   0.000E+00           T           F   0.000E+00   0.000E+00   6.300E-01   0.000E+00   0.000E+00   0.000E+00   0.000E+00   0.000E+00   0.000E+00   1.000E+00      1   254
    22          22           0          16     14.4338    -13.0000    -17.0000      0.0000   8.000E-01   0.000E+00   1.750E-02   0.000E+00   0.000E+00           T           F   0.000E+00   0.000E+00   6.300E-01   0.000E+00   0.000E+00   0.000E+00   0.000E+00   0.000E+00   0.000E+00   1.000E+00      1    16
    23          23           0          16     14.4338     13.0000    -17.0000      1.0000   8.000E-01   0.000E+00   1.750E-02   0.000E+00   0.000E+00           T           F   0.000E+00   0.000E+00   6.300E-01   0.000E+00   0.000E+00   0.000E+00   0.000E+00   0.000E+00   0.000E+00   1.000E+00      1   279
    24          24           0          17      1.6250      2.8150     10.0000      0.0000   8.000E-01   0.000E+00   1.750E-02   0.000E+00   0.000E+00           T           F   0.000E+00   0.000E+00   6.300E-01   0.000E+00   0.000E+00   0.000E+00   0.000E+00   0.000E+00   0.000E+00   1.000E+00      1    17
    25          25           0          17     11.4338     19.8039     10.0000      1.0000   8.000E-01   0.000E+00   1.750E-02   0.000E+00   0.000E+00           T           F   0.000E+00   0.000E+00   6.300E-01   0.000E+00   0.000E+00   0.000E+00   0.000E+00   0.000E+00   0.000E+00   1.000E+00      1   298
    26          26           0          18     -3.2500      0.0000     10.0000      0.0000   8.000E-01   0.000E+00   1.750E-02   0.000E+00   0.000E+00           T           F   0.000E+00   0.000E+00   6.300E-01   0.000E+00   0.000E+00   0.000E+00   0.000E+00   0.000E+00   0.000E+00   1.000E+00      1   317
    27          27           0          18    -22.8700      0.0000     10.0000      1.0000   8.000E-01   0.000E+00   1.750E-02   0.000E+00   0.000E+00           T           F   0.000E+00   0.000E+00   6.300E-01   0.000E+00   0.000E+00   0.000E+00   0.000E+00   0.000E+00   0.000E+00   1.000E+00      1    18
    28          28           0          19      1.6250     -2.8150     10.0000      0.0000   8.000E-01   0.000E+00   1.750E-02   0.000E+00   0.000E+00           T           F   0.000E+00   0.000E+00   6.300E-01   0.000E+00   0.000E+00   0.000E+00   0.000E+00   0.000E+00   0.000E+00   1.000E+00      1    19
    29          29           0          19     11.4338    -19.8039     10.0000      1.0000   8.000E-01   0.000E+00   1.750E-02   0.000E+00   0.000E+00           T           F   0.000E+00   0.000E+00   6.300E-01   0.000E+00   0.000E+00   0.000E+00   0.000E+00   0.000E+00   0.000E+00   1.000E+00      1   336
    30          30           0          20      1.6250      2.8150    -17.0000      0.0000   8.000E-01   0.000E+00   1.750E-02   0.000E+00   0.000E+00           T           F   0.000E+00   0.000E+00   6.300E-01   0.000E+00   0.000E+00   0.000E+00   0.000E+00   0.000E+00   0.000E+00   1.000E+00      1    20
    31          31           0          20      8.4338     14.6077    -17.0000      1.0000   8.000E-01   0.000E+00   1.750E-02   0.000E+00   0.000E+00           T           F   0.000E+00   0.000E+00   6.300E-01   0.000E+00   0.000E+00   0.000E+00   0.000E+00   0.000E+00   0.000E+00   1.000E+00      1   349
    32          32           0          21     -3.2500      0.0000    -17.0000      0.0000   8.000E-01   0.000E+00   1.750E-02   0.000E+00   0.000E+00           T           F   0.000E+00   0.000E+00   6.300E-01   0.000E+00   0.000E+00   0.000E+00   0.000E+00   0.000E+00   0.000E+00   1.000E+00      1   362
    33          33           0          21    -16.8700      0.0000    -17.0000      1.0000   8.000E-01   0.000E+00   1.750E-02   0.000E+00   0.000E+00           T           F   0.000E+00   0.000E+00   6.300E-01   0.000E+00   0.000E+00   0.000E+00   0.000E+00   0.000E+00   0.000E+00   1.000E+00      1    21
    34          34           0          22      1.6250     -2.8150    -17.0000      0.0000   8.000E-01   0.000E+00   1.750E-02   0.000E+00   0.000E+00           T           F   0.000E+00   0.000E+00   6.300E-01   0.000E+00   0.000E+00   0.000E+00   0.000E+00   0.000E+00   0.000E+00   1.000E+00      1    22
    35          35           0          22      8.4338    -14.6077    -17.0000      1.0000   8.000E-01   0.000E+00   1.750E-02   0.000E+00   0.000E+00           T           F   0.000E+00   0.000E+00   6.300E-01   0.000E+00   0.000E+00   0.000E+00   0.000E+00   0.000E+00   0.000E+00   1.000E+00      1   375
    36          36           0          23      1.6250      2.8150    -16.2000      0.0000   8.000E-01   0.000E+00   1.750E-02   0.000E+00   0.000E+00           T           F   0.000E+00   0.000E+00   6.300E-01   0.000E+00   0.000E+00   0.000E+00   0.000E+00   0.000E+00   0.000E+00   1.000E+00      1    23
    37          37           0          23     11.4338     19.8039      9.1300      1.0000   8.000E-01   0.000E+00   1.750E-02   0.000E+00   0.000E+00           T           F   0.000E+00   0.000E+00   6.300E-01   0.000E+00   0.000E+00   0.000E+00   0.000E+00   0.000E+00   0.000E+00   1.000E+00      1   506
    38          38           0          24     -3.2500      0.0000    -16.2000      0.0000   8.000E-01   0.000E+00   1.750E-02   0.000E+00   0.000E+00           T           F   0.000E+00   0.000E+00   6.300E-01   0.000E+00   0.000E+00   0.000E+00   0.000E+00   0.000E+00   0.000E+00   1.000E+00      1    24
    39          39           0          24    -22.8700      0.0000      9.1300      1.0000   8.000E-01   0.000E+00   1.750E-02   0.000E+00   0.000E+00           T           F   0.000E+00   0.000E+00   6.300E-01   0.000E+00   0.000E+00   0.000E+00   0.000E+00   0.000E+00   0.000E+00   1.000E+00      1   517
    40          40           0          25      1.6250     -2.8150    -16.2000      0.0000   8.000E-01   0.000E+00   1.750E-02   0.000E+00   0.000E+00           T           F   0.000E+00   0.000E+00   6.300E-01   0.000E+00   0.000E+00   0.000E+00   0.000E+00   0.000E+00   0.000E+00   1.000E+00      1    25
    41          41           0          25     11.4338    -19.8039      9.1300      1.0000   8.000E-01   0.000E+00   1.750E-02   0.000E+00   0.000E+00           T           F   0.000E+00   0.000E+00   6.300E-01   0.000E+00   0.000E+00   0.000E+00   0.000E+00   0.000E+00   0.000E+00   1.000E+00      1   528
    42          42           0           8     14.4338     25.0000    -19.9400      1.0000   1.200E+01   0.000E+00   6.000E-02   0.000E+00   0.000E+00           T           F   0.000E+00   0.000E+00   6.800E-01   0.000E+00   0.000E+00   0.000E+00   0.000E+00   0.000E+00   0.000E+00   1.000E+00      1     8
    43          43           0           9    -28.8675      0.0000    -19.9400      1.0000   1.200E+01   0.000E+00   6.000E-02   0.000E+00   0.000E+00           T           F   0.000E+00   0.000E+00   6.800E-01   0.000E+00   0.000E+00   0.000E+00   0.000E+00   0.000E+00   0.000E+00   1.000E+00      1     9
    44          44           0          10     14.4338    -25.0000    -19.9400      1.0000   1.200E+01   0.000E+00   6.000E-02   0.000E+00   0.000E+00           T           F   0.000E+00   0.000E+00   6.800E-01   0.000E+00   0.000E+00   0.000E+00   0.000E+00   0.000E+00   0.000E+00   1.000E+00      1    10
    45          45           0           1      0.0000      0.0000      0.0000      0.6667   3.250E+00   0.000E+00   3.000E-02   0.000E+00   0.000E+00           T           F   0.000E+00   0.000E+00   5.600E-01   0.000E+00   0.000E+00   0.000E+00   0.000E+00   0.000E+00   0.000E+00   0.000E+00      1    57
    46          46           0           2     14.4338     25.0000     -6.1700      0.3012   6.000E+00   0.000E+00   6.000E-02   0.000E+00   0.000E+00           T           T   1.025E+03  -6.170E+00   6.100E-01   0.000E+00   0.000E+00   0.000E+00   0.000E+00   0.000E+00   0.000E+00   0.000E+00      1    64
    47          47           0           2     14.4338     25.0000      0.0000      0.5385   6.000E+00   0.000E+00   6.000E-02   0.000E+00   0.000E+00           T           F   0.000E+00   0.000E+00   6.100E-01   0.000E+00   0.000E+00   0.000E+00   0.000E+00   0.000E+00   0.000E+00   0.000E+00      1   450
    48          48           0           3    -28.8675      0.0000     -6.1700      0.3012   6.000E+00   0.000E+00   6.000E-02   0.000E+00   0.000E+00           T           T   1.025E+03  -6.170E+00   6.100E-01   0.000E+00   0.000E+00   0.000E+00   0.000E+00   0.000E+00   0.000E+00   0.000E+00      1    71
    49          49           0           3    -28.8675      0.0000      0.0000      0.5385   6.000E+00   0.000E+00   6.000E-02   0.000E+00   0.000E+00           T           F   0.000E+00   0.000E+00   6.100E-01   0.000E+00   0.000E+00   0.000E+00   0.000E+00   0.000E+00   0.000E+00   0.000E+00      1   467
    50          50           0           4     14.4338    -25.0000     -6.1700      0.3012   6.000E+00   0.000E+00   6.000E-02   0.000E+00   0.000E+00           T           T   1.025E+03  -6.170E+00   6.100E-01   0.000E+00   0.000E+00   0.000E+00   0.000E+00   0.000E+00   0.000E+00   0.000E+00      1    78
    51          51           0           4     14.4338    -25.0000      0.0000      0.5385   6.000E+00   0.000E+00   6.000E-02   0.000E+00   0.000E+00           T           F   0.000E+00   0.000E+00   6.100E-01   0.000E+00   0.000E+00   0.000E+00   0.000E+00   0.000E+00   0.000E+00   0.000E+00      1   484
    52          52           0           5     14.4338     25.0000    -14.8900      0.8502   1.200E+01   0.000E+00   6.000E-02   0.000E+00   0.000E+00           T           T   1.025E+03  -1.489E+01   6.800E-01   0.000E+00   0.000E+00   0.000E+00   0.000E+00   0.000E+00   0.000E+00   0.000E+00      1    83
    53          53           0           6    -28.8675      0.0000    -14.8900      0.8502   1.200E+01   0.000E+00   6.000E-02   0.000E+00   0.000E+00           T           T   1.025E+03  -1.489E+01   6.800E-01   0.000E+00   0.000E+00   0.000E+00   0.000E+00   0.000E+00   0.000E+00   0.000E+00      1    88
    54          54           0           7     14.4338    -25.0000    -14.8900      0.8502   1.200E+01   0.000E+00   6.000E-02   0.000E+00   0.000E+00           T           T   1.025E+03  -1.489E+01   6.800E-01   0.000E+00   0.000E+00   0.000E+00   0.000E+00   0.000E+00   0.000E+00   0.000E+00      1    93
    55          55           0          23      7.8983     13.6804      0.0000      0.6396   8.000E-01   0.000E+00   1.750E-02   0.000E+00   0.000E+00           T           F   0.000E+00   0.000E+00   6.300E-01   0.000E+00   0.000E+00   0.000E+00   0.000E+00   0.000E+00   0.000E+00   0.000E+00      1   395
    56          56           0          24    -15.7981      0.0000      0.0000      0.6396   8.000E-01   0.000E+00   1.750E-02   0.000E+00   0.000E+00           T           F   0.000E+00   0.000E+00   6.300E-01   0.000E+00   0.000E+00   0.000E+00   0.000E+00   0.000E+00   0.000E+00   0.000E+00      1   415
    57          57           0          25      7.8983    -13.6804      0.0000      0.6396   8.000E-01   0.000E+00   1.750E-02   0.000E+00   0.000E+00           T           F   0.000E+00   0.000E+00   6.300E-01   0.000E+00   0.000E+00   0.000E+00   0.000E+00   0.000E+00   0.000E+00   0.000E+00      1   435
    58          -1           0           1      0.0000      0.0000    -19.0000      0.0333   3.250E+00   0.000E+00   3.000E-02   0.000E+00   0.000E+00           T           F   0.000E+00   0.000E+00   5.600E-01   0.000E+00   0.000E+00   0.000E+00   0.000E+00   0.000E+00   0.000E+00   0.000E+00      2     1    39
    59          -1           0           1      0.0000      0.0000    -18.0000      0.0667   3.250E+00   0.000E+00   3.000E-02   0.000E+00   0.000E+00           T           F   0.000E+00   0.000E+00   5.600E-01   0.000E+00   0.000E+00   0.000E+00   0.000E+00   0.000E+00   0.000E+00   0.000E+00      2    39    40
    60          -1           0           1      0.0000      0.0000    -17.0000      0.1000   3.250E+00   0.000E+00   3.000E-02   0.000E+00   0.000E+00           T           F   0.000E+00   0.000E+00   5.600E-01   0.000E+00   0.000E+00   0.000E+00   0.000E+00   0.000E+00   0.000E+00   0.000E+00      2    40    41
    61          -1           0           1      0.0000      0.0000    -16.0000      0.1333   3.250E+00   0.000E+00   3.000E-02   0.000E+00   0.000E+00           T           F   0.000E+00   0.000E+00   5.600E-01   0.000E+00   0.000E+00   0.000E+00   0.000E+00   0.000E+00   0.000E+00   0.000E+00      2    41    42
    62          -1           0           1      0.0000      0.0000    -15.0000      0.1667   3.250E+00   0.000E+00   3.000E-02   0.000E+00   0.000E+00           T           F   0.000E+00   0.000E+00   5.600E-01   0.000E+00   0.000E+00   0.000E+00   0.000E+00   0.000E+00   0.000E+00   0.000E+00      2    42    43
    63          -1           0           1      0.0000      0.0000    -14.0000      0.2000   3.250E+00   0.000E+00   3.000E-02   0.000E+00   0.000E+00           T           F   0.000E+00   0.000E+00   5.600E-01   0.000E+00   0.000E+00   0.000E+00   0.000E+00   0.000E+00   0.000E+00   0.000E+00      2    43    44
    64          -1           0           1      0.0000      0.0000    -13.0000      0.2333   3.250E+00   0.000E+00   3.000E-02   0.000E+00   0.000E+00           T           F   0.000E+00   0.000E+00   5.600E-01   0.000E+00   0.000E+00   0.000E+00   0.000E+00   0.000E+00   0.000E+00   0.000E+00      2    44    45
    65          -1           0           1      0.0000      0.0000    -12.0000      0.2667   3.250E+00   0.000E+00   3.000E-02   0.000E+00   0.000E+00           T           F   0.000E+00   0.000E+00   5.600E-01   0.000E+00   0.000E+00   0.000E+00   0.000E+00   0.000E+00   0.000E+00   0.000E+00      2    45    46
    66          -1           0           1      0.0000      0.0000    -11.0000      0.3000   3.250E+00   0.000E+00   3.000E-02   0.000E+00   0.000E+00           T           F   0.000E+00   0.000E+00   5.600E-01   0.000E+00   0.000E+00   0.000E+00   0.000E+00   0.000E+00   0.000E+00   0.000E+00      2    46    47
    67          -1           0           1      0.0000      0.0000    -10.0000      0.3333   3.250E+00   0.000E+00   3.000E-02   0.000E+00   0.000E+00           T           F   0.000E+00   0.000E+00   5.600E-01   0.000E+00   0.000E+00   0.000E+00   0.000E+00   0.000E+00   0.000E+00   0.000E+00      2    47    48
    68          -1           0           1      0.0000      0.0000     -9.0000      0.3667   3.250E+00   0.000E+00   3.000E-02   0.000E+00   0.000E+00           T           F   0.000E+00   0.000E+00   5.600E-01   0.000E+00   0.000E+00   0.000E+00   0.000E+00   0.000E+00   0.000E+00   0.000E+00      2    48    49
    69          -1           0           1      0.0000      0.0000     -8.0000      0.4000   3.250E+00   0.000E+00   3.000E-02   0.000E+00   0.000E+00           T           F   0.000E+00   0.000E+00   5.600E-01   0.000E+00   0.000E+00   0.000E+00   0.000E+00   0.000E+00   0.000E+00   0.000E+00      2    49    50
    70          -1           0           1      0.0000      0.0000     -7.0000      0.4333   3.250E+00   0.000E+00   3.000E-02   0.000E+00   0.000E+00           T           F   0.000E+00   0.000E+00   5.600E-01   0.000E+00   0.000E+00   0.000E+00   0.000E+00   0.000E+00   0.000E+00   0.000E+00      2    50    51
    71          -1           0           1      0.0000      0.0000     -6.0000      0.4667   3.250E+00   0.000E+00   3.000E-02   0.000E+00   0.000E+00           T           F   0.000E+00   0.000E+00   5.600E-01   0.000E+00   0.000E+00   0.000E+00   0.000E+00   0.000E+00   0.000E+00   0.000E+00      2    51    52
    72          -1           0           1      0.0000      0.0000     -5.0000      0.5000   3.250E+00   0.000E+00   3.000E-02   0.000E+00   0.000E+00           T           F   0.000E+00   0.000E+00   5.600E-01   0.000E+00   0.000E+00   0.000E+00   0.000E+00   0.000E+00   0.000E+00   0.000E+00      2    52    53
    73          -1           0           1      0.0000      0.0000     -4.0000      0.5333   3.250E+00   0.000E+00   3.000E-02   0.000E+00   0.000E+00           T           F   0.000E+00   0.000E+00   5.600E-01   0.000E+00   0.000E+00   0.000E+00   0.000E+00   0.000E+00   0.000E+00   0.000E+00      2    53    54
    74          -1           0           1      0.0000      0.0000     -3.0000      0.5667   3.250E+00   0.000E+00   3.000E-02   0.000E+00   0.000E+00           T           F   0.000E+00   0.000E+00   5.600E-01   0.000E+00   0.000E+00   0.000E+00   0.000E+00   0.000E+00   0.000E+00   0.000E+00      2    54    55
    75          -1           0           1      0.0000      0.0000     -2.0000      0.6000   3.250E+00   0.000E+00   3.000E-02   0.000E+00   0.000E+00           T           F   0.000E+00   0.000E+00   5.600E-01   0.000E+00   0.000E+00   0.000E+00   0.000E+00   0.000E+00   0.000E+00   0.000E+00      2    55    56
    76          -1           0           1      0.0000      0.0000     -1.0000      0.6333   3.250E+00   0.000E+00   3.000E-02   0.000E+00   0.000E+00           T           F   0.000E+00   0.000E+00   5.600E-01   0.000E+00   0.000E+00   0.000E+00   0.000E+00   0.000E+00   0.000E+00   0.000E+00      2    56    57
    77          -1           0           2     14.4338     25.0000    -13.0212      0.0376   6.000E+00   0.000E+00   6.000E-02   0.000E+00   0.000E+00           T           T   1.025E+03  -6.170E+00   6.100E-01   0.000E+00   0.000E+00   0.000E+00   0.000E+00   0.000E+00   0.000E+00   0.000E+00      2     2    58
    78          -1           0           2     14.4338     25.0000    -12.0425      0.0753   6.000E+00   0.000E+00   6.000E-02   0.000E+00   0.000E+00           T           T   1.025E+03  -6.170E+00   6.100E-01   0.000E+00   0.000E+00   0.000E+00   0.000E+00   0.000E+00   0.000E+00   0.000E+00      2    58    59
    79          -1           0           2     14.4338     25.0000    -11.0638      0.1129   6.000E+00   0.000E+00   6.000E-02   0.000E+00   0.000E+00           T           T   1.025E+03  -6.170E+00   6.100E-01   0.000E+00   0.000E+00   0.000E+00   0.000E+00   0.000E+00   0.000E+00   0.000E+00      2    59    60
    80          -1           0           2     14.4338     25.0000    -10.0850      0.1506   6.000E+00   0.000E+00   6.000E-02   0.000E+00   0.000E+00           T           T   1.025E+03  -6.170E+00   6.100E-01   0.000E+00   0.000E+00   0.000E+00   0.000E+00   0.000E+00   0.000E+00   0.000E+00      2    60    61
    81          -1           0           2     14.4338     25.0000     -9.1062      0.1882   6.000E+00   0.000E+00   6.000E-02   0.000E+00   0.000E+00           T           T   1.025E+03  -6.170E+00   6.100E-01   0.000E+00   0.000E+00   0.000E+00   0.000E+00   0.000E+00   0.000E+00   0.000E+00      2    61    62
    82          -1           0           2     14.4338     25.0000     -8.1275      0.2259   6.000E+00   0.000E+00   6.000E-02   0.000E+00   0.000E+00           T           T   1.025E+03  -6.170E+00   6.100E-01   0.000E+00   0.000E+00   0.000E+00   0.000E+00   0.000E+00   0.000E+00   0.000E+00      2    62    63
    83          -1           0           2     14.4338     25.0000     -7.1488      0.2635   6.000E+00   0.000E+00   6.000E-02   0.000E+00   0.000E+00           T           T   1.025E+03  -6.170E+00   6.100E-01   0.000E+00   0.000E+00   0.000E+00   0.000E+00   0.000E+00   0.000E+00   0.000E+00      2    63    64
    84          -1           0           3    -28.8675      0.0000    -13.0212      0.0376   6.000E+00   0.000E+00   6.000E-02   0.000E+00   0.000E+00           T           T   1.025E+03  -6.170E+00   6.100E-01   0.000E+00   0.000E+00   0.000E+00   0.000E+00   0.000E+00   0.000E+00   0.000E+00      2     3    65
    85          -1           0           3    -28.8675      0.0000    -12.0425      0.0753   6.000E+00   0.000E+00   6.000E-02   0.000E+00   0.000E+00           T           T   1.025E+03  -6.170E+00   6.100E-01   0.000E+00   0.000E+00   0.000E+00   0.000E+00   0.000E+00   0.000E+00   0.000E+00      2    65    66
    86          -1           0           3    -28.8675      0.0000    -11.0638      0.1129   6.000E+00   0.000E+00   6.000E-02   0.000E+00   0.000E+00           T           T   1.025E+03  -6.170E+00   6.100E-01   0.000E+00   0.000E+00   0.000E+00   0.000E+00   0.000E+00   0.000E+00   0.000E+00      2    66    67
    87          -1           0           3    -28.8675      0.0000    -10.0850      0.1506   6.000E+00   0.000E+00   6.000E-02   0.000E+00   0.000E+00           T           T   1.025E+03  -6.170E+00   6.100E-01   0.000E+00   0.000E+00   0.000E+00   0.000E+00   0.000E+00   0.000E+00   0.000E+00      2    67    68
    88          -1           0           3    -28.8675      0.0000     -9.1062      0.1882   6.000E+00   0.000E+00   6.000E-02   0.000E+00   0.000E+00           T           T   1.025E+03  -6.170E+00   6.100E-01   0.000E+00   0.000E+00   0.000E+00   0.000E+00   0.000E+00   0.000E+00   0.000E+00      2    68    69
    89          -1           0           3    -28.8675      0.0000     -8.1275      0.2259   6.000E+00   0.000E+00   6.000E-02   0.000E+00   0.000E+00           T           T   1.025E+03  -6.170E+00   6.100E-01   0.000E+00   0.000E+00   0.000E+00   0.000E+00   0.000E+00   0.000E+00   0.000E+00      2    69    70
    90          -1           0           3    -28.8675      0.0000     -7.1488      0.2635   6.000E+00   0.000E+00   6.000E-02   0.000E+00   0.000E+00           T           T   1.025E+03  -6.170E+00   6.100E-01   0.000E+00   0.000E+00   0.000E+00   0.000E+00   0.000E+00   0.000E+00   0.000E+00      2    70    71
    91          -1           0           4     14.4338    -25.0000    -13.0212      0.0376   6.000E+00   0.000E+00   6.000E-02   0.000E+00   0.000E+00           T           T   1.025E+03  -6.170E+00   6.100E-01   0.000E+00   0.000E+00   0.000E+00   0.000E+00   0.000E+00   0.000E+00   0.000E+00      2     4    72
    92          -1           0           4     14.4338    -25.0000    -12.0425      0.0753   6.000E+00   0.000E+00   6.000E-02   0.000E+00   0.000E+00           T           T   1.025E+03  -6.170E+00   6.100E-01   0.000E+00   0.000E+00   0.000E+00   0.000E+00   0.000E+00   0.000E+00   0.000E+00      2    72    73
    93          -1           0           4     14.4338    -25.0000    -11.0638      0.1129   6.000E+00   0.000E+00   6.000E-02   0.000E+00   0.000E+00           T           T   1.025E+03  -6.170E+00   6.100E-01   0.000E+00   0.000E+00   0.000E+00   0.000E+00   0.000E+00   0.000E+00   0.000E+00      2    73    74
    94          -1           0           4     14.4338    -25.0000    -10.0850      0.1506   6.000E+00   0.000E+00   6.000E-02   0.000E+00   0.000E+00           T           T   1.025E+03  -6.170E+00   6.100E-01   0.000E+00   0.000E+00   0.000E+00   0.000E+00   0.000E+00   0.000E+00   0.000E+00      2    74    75
    95          -1           0           4     14.4338    -25.0000     -9.1062      0.1882   6.000E+00   0.000E+00   6.000E-02   0.000E+00   0.000E+00           T           T   1.025E+03  -6.170E+00   6.100E-01   0.000E+00   0.000E+00   0.000E+00   0.000E+00   0.000E+00   0.000E+00   0.000E+00      2    75    76
    96          -1           0           4     14.4338    -25.0000     -8.1275      0.2259   6.000E+00   0.000E+00   6.000E-02   0.000E+00   0.000E+00           T           T   1.025E+03  -6.170E+00   6.100E-01   0.000E+00   0.000E+00   0.000E+00   0.000E+00   0.000E+00   0.000E+00   0.000E+00      2    76    77
    97          -1           0           4     14.4338    -25.0000     -7.1488      0.2635   6.000E+00   0.000E+00   6.000E-02   0.000E+00   0.000E+00           T           T   1.025E+03  -6.170E+00   6.100E-01   0.000E+00   0.000E+00   0.000E+00   0.000E+00   0.000E+00   0.000E+00   0.000E+00      2    77    78
    98          -1           0           5     14.4338     25.0000    -19.0983      0.1417   1.200E+01   0.000E+00   6.000E-02   0.000E+00   0.000E+00           T           T   1.025E+03  -1.489E+01   6.800E-01   0.000E+00   0.000E+00   0.000E+00   0.000E+00   0.000E+00   0.000E+00   0.000E+00      2     5    79
    99          -1           0           5     14.4338     25.0000    -18.2567      0.2834   1.200E+01   0.000E+00   6.000E-02   0.000E+00   0.000E+00           T           T   1.025E+03  -1.489E+01   6.800E-01   0.000E+00   0.000E+00   0.000E+00   0.000E+00   0.000E+00   0.000E+00   0.000E+00      2    79    80
   100          -1           0           5     14.4338     25.0000    -17.4150      0.4251   1.200E+01   0.000E+00   6.000E-02   0.000E+00   0.000E+00           T           T   1.025E+03  -1.489E+01   6.800E-01   0.000E+00   0.000E+00   0.000E+00   0.000E+00   0.000E+00   0.000E+00   0.000E+00      2    80    81
   101          -1           0           5     14.4338     25.0000    -16.5733      0.5668   1.200E+01   0.000E+00   6.000E-02   0.000E+00   0.000E+00           T           T   1.025E+03  -1.489E+01   6.800E-01   0.000E+00   0.000E+00   0.000E+00   0.000E+00   0.000E+00   0.000E+00   0.000E+00      2    81    82
   102          -1           0           5     14.4338     25.0000    -15.7317      0.7085   1.200E+01   0.000E+00   6.000E-02   0.000E+00   0.000E+00           T           T   1.025E+03  -1.489E+01   6.800E-01   0.000E+00   0.000E+00   0.000E+00   0.000E+00   0.000E+00   0.000E+00   0.000E+00      2    82    83
   103          -1           0           6    -28.8675      0.0000    -19.0983      0.1417   1.200E+01   0.000E+00   6.000E-02   0.000E+00   0.000E+00           T           T   1.025E+03  -1.489E+01   6.800E-01   0.000E+00   0.000E+00   0.000E+00   0.000E+00   0.000E+00   0.000E+00   0.000E+00      2     6    84
   104          -1           0           6    -28.8675      0.0000    -18.2567      0.2834   1.200E+01   0.000E+00   6.000E-02   0.000E+00   0.000E+00           T           T   1.025E+03  -1.489E+01   6.800E-01   0.000E+00   0.000E+00   0.000E+00   0.000E+00   0.000E+00   0.000E+00   0.000E+00      2    84    85
   105          -1           0           6    -28.8675      0.0000    -17.4150      0.4251   1.200E+01   0.000E+00   6.000E-02   0.000E+00   0.000E+00           T           T   1.025E+03  -1.489E+01   6.800E-01   0.000E+00   0.000E+00   0.000E+00   0.000E+00   0.000E+00   0.000E+00   0.000E+00      2    85    86
   106          -1           0           6    -28.8675      0.0000    -16.5733      0.5668   1.200E+01   0.000E+00   6.000E-02   0.000E+00   0.000E+00           T           T   1.025E+03  -1.489E+01   6.800E-01   0.000E+00   0.000E+00   0.000E+00   0.000E+00   0.000E+00   0.000E+00   0.000E+00      2    86    87
   107          -1           0           6    -28.8675      0.0000    -15.7317      0.7085   1.200E+01   0.000E+00   6.000E-02   0.000E+00   0.000E+00           T           T   1.025E+03  -1.489E+01   6.800E-01   0.000E+00   0.000E+00   0.000E+00   0.000E+00   0.000E+00   0.000E+00   0.000E+00      2    87    88
   108          -1           0           7     14.4338    -25.0000    -19.0983      0.1417   1.200E+01   0.000E+00   6.000E-02   0.000E+00   0.000E+00           T           T   1.025E+03  -1.489E+01   6.800E-01   0.000E+00   0.000E+00   0.000E+00   0.000E+00   0.000E+00   0.000E+00   0.000E+00      2     7    89
   109          -1           0           7     14.4338    -25.0000    -18.2567      0.2834   1.200E+01   0.000E+00   6.000E-02   0.000E+00   0.000E+00           T           T   1.025E+03  -1.489E+01   6.800E-01   0.000E+00   0.000E+00   0.000E+00   0.000E+00   0.000E+00   0.000E+00   0.000E+00      2    89    90
   110          -1           0           7     14.4338    -25.0000    -17.4150      0.4251   1.200E+01   0.000E+00   6.000E-02   0.000E+00   0.000E+00           T           T   1.025E+03  -1.489E+01   6.800E-01   0.000E+00   0.000E+00   0.000E+00   0.000E+00   0.000E+00   0.000E+00   0.000E+00      2    90    91
   111          -1           0           7     14.4338    -25.0000    -16.5733      0.5668   1.200E+01   0.000E+00   6.000E-02   0.000E+00   0.000E+00           T           T   1.025E+03  -1.489E+01   6.800E-01   0.000E+00   0.000E+00   0.000E+00   0.000E+00   0.000E+00   0.000E+00   0.000E+00      2    91    92
   112          -1           0           7     14.4338    -25.0000    -15.7317      0.7085   1.200E+01   0.000E+00   6.000E-02   0.000E+00   0.000E+00           T           T   1.025E+03  -1.489E+01   6.800E-01   0.000E+00   0.000E+00   0.000E+00   0.000E+00   0.000E+00   0.000E+00   0.000E+00      2    92    93
   113          -1           0          11    -22.8053      3.5000     10.0000      0.9737   8.000E-01   0.000E+00   1.750E-02   0.000E+00   0.000E+00           T           F   0.000E+00   0.000E+00   6.300E-01   0.000E+00   0.000E+00   0.000E+00   0.000E+00   0.000E+00   0.000E+00   0.000E+00      2    11    94
   114          -1           0          11    -21.9393      4.0000     10.0000      0.9474   8.000E-01   0.000E+00   1.750E-02   0.000E+00   0.000E+00           T           F   0.000E+00   0.000E+00   6.300E-01   0.000E+00   0.000E+00   0.000E+00   0.000E+00   0.000E+00   0.000E+00   0.000E+00      2    94    95
   115          -1           0          11    -21.0732      4.5000     10.0000      0.9211   8.000E-01   0.000E+00   1.750E-02   0.000E+00   0.000E+00           T           F   0.000E+00   0.000E+00   6.300E-01   0.000E+00   0.000E+00   0.000E+00   0.000E+00   0.000E+00   0.000E+00   0.000E+00      2    95    96
   116          -1           0          11    -20.2072      5.0000     10.0000      0.8947   8.000E-01   0.000E+00   1.750E-02   0.000E+00   0.000E+00           T           F   0.000E+00   0.000E+00   6.300E-01   0.000E+00   0.000E+00   0.000E+00   0.000E+00   0.000E+00   0.000E+00   0.000E+00      2    96    97
   117          -1           0          11    -19.3412      5.5000     10.0000      0.8684   8.000E-01   0.000E+00   1.750E-02   0.000E+00   0.000E+00           T           F   0.000E+00   0.000E+00   6.300E-01   0.000E+00   0.000E+00   0.000E+00   0.000E+00   0.000E+00   0.000E+00   0.000E+00      2    97    98
   118          -1           0          11    -18.4752      6.0000     10.0000      0.8421   8.000E-01   0.000E+00   1.750E-02   0.000E+00   0.000E+00           T           F   0.000E+00   0.000E+00   6.300E-01   0.000E+00   0.000E+00   0.000E+00   0.000E+00   0.000E+00   0.000E+00   0.000E+00      2    98    99
   119          -1           0          11    -17.6091      6.5000     10.0000      0.8158   8.000E-01   0.000E+00   1.750E-02   0.000E+00   0.000E+00           T           F   0.000E+00   0.000E+00   6.300E-01   0.000E+00   0.000E+00   0.000E+00   0.000E+00   0.000E+00   0.000E+00   0.000E+00      2    99   100
   120          -1           0          11    -16.7431      7.0000     10.0000      0.7895   8.000E-01   0.000E+00   1.750E-02   0.000E+00   0.000E+00           T           F   0.000E+00   0.000E+00   6.300E-01   0.000E+00   0.000E+00   0.000E+00   0.000E+00   0.000E+00   0.000E+00   0.000E+00      2   100   101
   121          -1           0          11    -15.8771      7.5000     10.0000      0.7632   8.000E-01   0.000E+00   1.750E-02   0.000E+00   0.000E+00           T           F   0.000E+00   0.000E+00   6.300E-01   0.000E+00   0.000E+00   0.000E+00   0.000E+00   0.000E+00   0.000E+00   0.000E+00      2   101   102
   122          -1           0          11    -15.0111      8.0000     10.0000      0.7368   8.000E-01   0.000E+00   1.750E-02   0.000E+00   0.000E+00           T           F   0.000E+00   0.000E+00   6.300E-01   0.000E+00   0.000E+00   0.000E+00   0.000E+00   0.000E+00   0.000E+00   0.000E+00      2   102   103
   123          -1           0          11    -14.1450      8.5000     10.0000      0.7105   8.000E-01   0.000E+00   1.750E-02   0.000E+00   0.000E+00           T           F   0.000E+00   0.000E+00   6.300E-01   0.000E+00   0.000E+00   0.000E+00   0.000E+00   0.000E+00   0.000E+00   0.000E+00      2   103   104
   124          -1           0          11    -13.2790      9.0000     10.0000      0.6842   8.000E-01   0.000E+00   1.750E-02   0.000E+00   0.000E+00           T           F   0.000E+00   0.000E+00   6.300E-01   0.000E+00   0.000E+00   0.000E+00   0.000E+00   0.000E+00   0.000E+00   0.000E+00      2   104   105
   125          -1           0          11    -12.4130      9.5000     10.0000      0.6579   8.000E-01   0.000E+00   1.750E-02   0.000E+00   0.000E+00           T           F   0.000E+00   0.000E+00   6.300E-01   0.000E+00   0.000E+00   0.000E+00   0.000E+00   0.000E+00   0.000E+00   0.000E+00      2   105   106
   126          -1           0          11    -11.5470     10.0000     10.0000      0.6316   8.000E-01   0.000E+00   1.750E-02   0.000E+00   0.000E+00           T           F   0.000E+00   0.000E+00   6.300E-01   0.000E+00   0.000E+00   0.000E+00   0.000E+00   0.000E+00   0.000E+00   0.000E+00      2   106   107
   127          -1           0          11    -10.6809     10.5000     10.0000      0.6053   8.000E-01   0.000E+00   1.750E-02   0.000E+00   0.000E+00           T           F   0.000E+00   0.000E+00   6.300E-01   0.000E+00   0.000E+00   0.000E+00   0.000E+00   0.000E+00   0.000E+00   0.000E+00      2   107   108
   128          -1           0          11     -9.8149     11.0000     10.0000      0.5789   8.000E-01   0.000E+00   1.750E-02   0.000E+00   0.000E+00           T           F   0.000E+00   0.000E+00   6.300E-01   0.000E+00   0.000E+00   0.000E+00   0.000E+00   0.000E+00   0.000E+00   0.000E+00      2   108   109
   129          -1           0          11     -8.9489     11.5000     10.0000      0.5526   8.000E-01   0.000E+00   1.750E-02   0.000E+00   0.000E+00           T           F   0.000E+00   0.000E+00   6.300E-01   0.000E+00   0.000E+00   0.000E+00   0.000E+00   0.000E+00   0.000E+00   0.000E+00      2   109   110
   130          -1           0          11     -8.0829     12.0000     10.0000      0.5263   8.000E-01   0.000E+00   1.750E-02   0.000E+00   0.000E+00           T           F   0.000E+00   0.000E+00   6.300E-01   0.000E+00   0.000E+00   0.000E+00   0.000E+00   0.000E+00   0.000E+00   0.000E+00      2   110   111
   131          -1           0          11     -7.2169     12.5000     10.0000      0.5000   8.000E-01   0.000E+00   1.750E-02   0.000E+00   0.000E+00           T           F   0.000E+00   0.000E+00   6.300E-01   0.000E+00   0.000E+00   0.000E+00   0.000E+00   0.000E+00   0.000E+00   0.000E+00      2   111   112
   132          -1           0          11     -6.3508     13.0000     10.0000      0.4737   8.000E-01   0.000E+00   1.750E-02   0.000E+00   0.000E+00           T           F   0.000E+00   0.000E+00   6.300E-01   0.000E+00   0.000E+00   0.000E+00   0.000E+00   0.000E+00   0.000E+00   0.000E+00      2   112   113
   133          -1           0          11     -5.4848     13.5000     10.0000      0.4474   8.000E-01   0.000E+00   1.750E-02   0.000E+00   0.000E+00           T           F   0.000E+00   0.000E+00   6.300E-01   0.000E+00   0.000E+00   0.000E+00   0.000E+00   0.000E+00   0.000E+00   0.000E+00      2   113   114
   134          -1           0          11     -4.6188     14.0000     10.0000      0.4211   8.000E-01   0.000E+00   1.750E-02   0.000E+00   0.000E+00           T           F   0.000E+00   0.000E+00   6.300E-01   0.000E+00   0.000E+00   0.000E+00   0.000E+00   0.000E+00   0.000E+00   0.000E+00      2   114   115
   135          -1           0          11     -3.7528     14.5000     10.0000      0.3947   8.000E-01   0.000E+00   1.750E-02   0.000E+00   0.000E+00           T           F   0.000E+00   0.000E+00   6.300E-01   0.000E+00   0.000E+00   0.000E+00   0.000E+00   0.000E+00   0.000E+00   0.000E+00      2   115   116
   136          -1           0          11     -2.8867     15.0000     10.0000      0.3684   8.000E-01   0.000E+00   1.750E-02   0.000E+00   0.000E+00           T           F   0.000E+00   0.000E+00   6.300E-01   0.000E+00   0.000E+00   0.000E+00   0.000E+00   0.000E+00   0.000E+00   0.000E+00      2   116   117
   137          -1           0          11     -2.0207     15.5000     10.0000      0.3421   8.000E-01   0.000E+00   1.750E-02   0.000E+00   0.000E+00           T           F   0.000E+00   0.000E+00   6.300E-01   0.000E+00   0.000E+00   0.000E+00   0.000E+00   0.000E+00   0.000E+00   0.000E+00      2   117   118
   138          -1           0          11     -1.1547     16.0000     10.0000      0.3158   8.000E-01   0.000E+00   1.750E-02   0.000E+00   0.000E+00           T           F   0.000E+00   0.000E+00   6.300E-01   0.000E+00   0.000E+00   0.000E+00   0.000E+00   0.000E+00   0.000E+00   0.000E+00      2   118   119
   139          -1           0          11     -0.2887     16.5000     10.0000      0.2895   8.000E-01   0.000E+00   1.750E-02   0.000E+00   0.000E+00           T           F   0.000E+00   0.000E+00   6.300E-01   0.000E+00   0.000E+00   0.000E+00   0.000E+00   0.000E+00   0.000E+00   0.000E+00      2   119   120
   140          -1           0          11      0.5774     17.0000     10.0000      0.2632   8.000E-01   0.000E+00   1.750E-02   0.000E+00   0.000E+00           T           F   0.000E+00   0.000E+00   6.300E-01   0.000E+00   0.000E+00   0.000E+00   0.000E+00   0.000E+00   0.000E+00   0.000E+00      2   120   121
   141          -1           0          11      1.4434     17.5000     10.0000      0.2368   8.000E-01   0.000E+00   1.750E-02   0.000E+00   0.000E+00           T           F   0.000E+00   0.000E+00   6.300E-01   0.000E+00   0.000E+00   0.000E+00   0.000E+00   0.000E+00   0.000E+00   0.000E+00      2   121   122
   142          -1           0          11      2.3094     18.0000     10.0000      0.2105   8.000E-01   0.000E+00   1.750E-02   0.000E+00   0.000E+00           T           F   0.000E+00   0.000E+00   6.300E-01   0.000E+00   0.000E+00   0.000E+00   0.000E+00   0.000E+00   0.000E+00   0.000E+00      2   122   123
   143          -1           0          11      3.1754     18.5000     10.0000      0.1842   8.000E-01   0.000E+00   1.750E-02   0.000E+00   0.000E+00           T           F   0.000E+00   0.000E+00   6.300E-01   0.000E+00   0.000E+00   0.000E+00   0.000E+00   0.000E+00   0.000E+00   0.000E+00      2   123   124
   144          -1           0          11      4.0415     19.0000     10.0000      0.1579   8.000E-01   0.000E+00   1.750E-02   0.000E+00   0.000E+00           T           F   0.000E+00   0.000E+00   6.300E-01   0.000E+00   0.000E+00   0.000E+00   0.000E+00   0.000E+00   0.000E+00   0.000E+00      2   124   125
   145          -1           0          11      4.9075     19.5000     10.0000      0.1316   8.000E-01   0.000E+00   1.750E-02   0.000E+00   0.000E+00           T           F   0.000E+00   0.000E+00   6.300E-01   0.000E+00   0.000E+00   0.000E+00   0.000E+00   0.000E+00   0.000E+00   0.000E+00      2   125   126
   146          -1           0          11      5.7735     20.0000     10.0000      0.1053   8.000E-01   0.000E+00   1.750E-02   0.000E+00   0.000E+00           T           F   0.000E+00   0.000E+00   6.300E-01   0.000E+00   0.000E+00   0.000E+00   0.000E+00   0.000E+00   0.000E+00   0.000E+00      2   126   127
   147          -1           0          11      6.6395     20.5000     10.0000      0.0789   8.000E-01   0.000E+00   1.750E-02   0.000E+00   0.000E+00           T           F   0.000E+00   0.000E+00   6.300E-01   0.000E+00   0.000E+00   0.000E+00   0.000E+00   0.000E+00   0.000E+00   0.000E+00      2   127   128
   148          -1           0          11      7.5055     21.0000     10.0000      0.0526   8.000E-01   0.000E+00   1.750E-02   0.000E+00   0.000E+00           T           F   0.000E+00   0.000E+00   6.300E-01   0.000E+00   0.000E+00   0.000E+00   0.000E+00   0.000E+00   0.000E+00   0.000E+00      2   128   129
   149          -1           0          11      8.3716     21.5000     10.0000      0.0263   8.000E-01   0.000E+00   1.750E-02   0.000E+00   0.000E+00           T           F   0.000E+00   0.000E+00   6.300E-01   0.000E+00   0.000E+00   0.000E+00   0.000E+00   0.000E+00   0.000E+00   0.000E+00      2   129   130
   150          -1           0          12    -22.8053     -3.5000     10.0000      0.0263   8.000E-01   0.000E+00   1.750E-02   0.000E+00   0.000E+00           T           F   0.000E+00   0.000E+00   6.300E-01   0.000E+00   0.000E+00   0.000E+00   0.000E+00   0.000E+00   0.000E+00   0.000E+00      2    12   131
   151          -1           0          12    -21.9393     -4.0000     10.0000      0.0526   8.000E-01   0.000E+00   1.750E-02   0.000E+00   0.000E+00           T           F   0.000E+00   0.000E+00   6.300E-01   0.000E+00   0.000E+00   0.000E+00   0.000E+00   0.000E+00   0.000E+00   0.000E+00      2   131   132
   152          -1           0          12    -21.0732     -4.5000     10.0000      0.0789   8.000E-01   0.000E+00   1.750E-02   0.000E+00   0.000E+00           T           F   0.000E+00   0.000E+00   6.300E-01   0.000E+00   0.000E+00   0.000E+00   0.000E+00   0.000E+00   0.000E+00   0.000E+00      2   132   133
   153          -1           0          12    -20.2072     -5.0000     10.0000      0.1053   8.000E-01   0.000E+00   1.750E-02   0.000E+00   0.000E+00           T           F   0.000E+00   0.000E+00   6.300E-01   0.000E+00   0.000E+00   0.000E+00   0.000E+00   0.000E+00   0.000E+00   0.000E+00      2   133   134
   154          -1           0          12    -19.3412     -5.5000     10.0000      0.1316   8.000E-01   0.000E+00   1.750E-02   0.000E+00   0.000E+00           T           F   0.000E+00   0.000E+00   6.300E-01   0.000E+00   0.000E+00   0.000E+00   0.000E+00   0.000E+00   0.000E+00   0.000E+00      2   134   135
   155          -1           0          12    -18.4752     -6.0000     10.0000      0.1579   8.000E-01   0.000E+00   1.750E-02   0.000E+00   0.000E+00           T           F   0.000E+00   0.000E+00   6.300E-01   0.000E+00   0.000E+00   0.000E+00   0.000E+00   0.000E+00   0.000E+00   0.000E+00      2   135   136
   156          -1           0          12    -17.6091     -6.5000     10.0000      0.1842   8.000E-01   0.000E+00   1.750E-02   0.000E+00   0.000E+00           T           F   0.000E+00   0.000E+00   6.300E-01   0.000E+00   0.000E+00   0.000E+00   0.000E+00   0.000E+00   0.000E+00   0.000E+00      2   136   137
   157          -1           0          12    -16.7431     -7.0000     10.0000      0.2105   8.000E-01   0.000E+00   1.750E-02   0.000E+00   0.000E+00           T           F   0.000E+00   0.000E+00   6.300E-01   0.000E+00   0.000E+00   0.000E+00   0.000E+00   0.000E+00   0.000E+00   0.000E+00      2   137   138
   158          -1           0          12    -15.8771     -7.5000     10.0000      0.2368   8.000E-01   0.000E+00   1.750E-02   0.000E+00   0.000E+00           T           F   0.000E+00   0.000E+00   6.300E-01   0.000E+00   0.000E+00   0.000E+00   0.000E+00   0.000E+00   0.000E+00   0.000E+00      2   138   139
   159          -1           0          12    -15.0111     -8.0000     10.0000      0.2632   8.000E-01   0.000E+00   1.750E-02   0.000E+00   0.000E+00           T           F   0.000E+00   0.000E+00   6.300E-01   0.000E+00   0.000E+00   0.000E+00   0.000E+00   0.000E+00   0.000E+00   0.000E+00      2   139   140
   160          -1           0          12    -14.1450     -8.5000     10.0000      0.2895   8.000E-01   0.000E+00   1.750E-02   0.000E+00   0.000E+00           T           F   0.000E+00   0.000E+00   6.300E-01   0.000E+00   0.000E+00   0.000E+00   0.000E+00   0.000E+00   0.000E+00   0.000E+00      2   140   141
   161          -1           0          12    -13.2790     -9.0000     10.0000      0.3158   8.000E-01   0.000E+00   1.750E-02   0.000E+00   0.000E+00           T           F   0.000E+00   0.000E+00   6.300E-01   0.000E+00   0.000E+00   0.000E+00   0.000E+00   0.000E+00   0.000E+00   0.000E+00      2   141   142
   162          -1           0          12    -12.4130     -9.5000     10.0000      0.3421   8.000E-01   0.000E+00   1.750E-02   0.000E+00   0.000E+00           T           F   0.000E+00   0.000E+00   6.300E-01   0.000E+00   0.000E+00   0.000E+00   0.000E+00   0.000E+00   0.000E+00   0.000E+00      2   142   143
   163          -1           0          12    -11.5470    -10.0000     10.0000      0.3684   8.000E-01   0.000E+00   1.750E-02   0.000E+00   0.000E+00           T           F   0.000E+00   0.000E+00   6.300E-01   0.000E+00   0.000E+00   0.000E+00   0.000E+00   0.000E+00   0.000E+00   0.000E+00      2   143   144
   164          -1           0          12    -10.6809    -10.5000     10.0000      0.3947   8.000E-01   0.000E+00   1.750E-02   0.000E+00   0.000E+00           T           F   0.000E+00   0.000E+00   6.300E-01   0.000E+00   0.000E+00   0.000E+00   0.000E+00   0.000E+00   0.000E+00   0.000E+00      2   144   145
   165          -1           0          12     -9.8149    -11.0000     10.0000      0.4211   8.000E-01   0.000E+00   1.750E-02   0.000E+00   0.000E+00           T           F   0.000E+00   0.000E+00   6.300E-01   0.000E+00   0.000E+00   0.000E+00   0.000E+00   0.000E+00   0.000E+00   0.000E+00      2   145   146
   166          -1           0          12     -8.9489    -11.5000     10.0000      0.4474   8.000E-01   0.000E+00   1.750E-02   0.000E+00   0.000E+00           T           F   0.000E+00   0.000E+00   6.300E-01   0.000E+00   0.000E+00   0.000E+00   0.000E+00   0.000E+00   0.000E+00   0.000E+00      2   146   147
   167          -1           0          12     -8.0829    -12.0000     10.0000      0.4737   8.000E-01   0.000E+00   1.750E-02   0.000E+00   0.000E+00           T           F   0.000E+00   0.000E+00   6.300E-01   0.000E+00   0.000E+00   0.000E+00   0.000E+00   0.000E+00   0.000E+00   0.000E+00      2   147   148
   168          -1           0          12     -7.2169    -12.5000     10.0000      0.5000   8.000E-01   0.000E+00   1.750E-02   0.000E+00   0.000E+00           T           F   0.000E+00   0.000E+00   6.300E-01   0.000E+00   0.000E+00   0.000E+00   0.000E+00   0.000E+00   0.000E+00   0.000E+00      2   148   149
   169          -1           0          12     -6.3508    -13.0000     10.0000      0.5263   8.000E-01   0.000E+00   1.750E-02   0.000E+00   0.000E+00           T           F   0.000E+00   0.000E+00   6.300E-01   0.000E+00   0.000E+00   0.000E+00   0.000E+00   0.000E+00   0.000E+00   0.000E+00      2   149   150
   170          -1           0          12     -5.4848    -13.5000     10.0000      0.5526   8.000E-01   0.000E+00   1.750E-02   0.000E+00   0.000E+00           T           F   0.000E+00   0.000E+00   6.300E-01   0.000E+00   0.000E+00   0.000E+00   0.000E+00   0.000E+00   0.000E+00   0.000E+00      2   150   151
   171          -1           0          12     -4.6188    -14.0000     10.0000      0.5789   8.000E-01   0.000E+00   1.750E-02   0.000E+00   0.000E+00           T           F   0.000E+00   0.000E+00   6.300E-01   0.000E+00   0.000E+00   0.000E+00   0.000E+00   0.000E+00   0.000E+00   0.000E+00      2   151   152
   172          -1           0          12     -3.7528    -14.5000     10.0000      0.6053   8.000E-01   0.000E+00   1.750E-02   0.000E+00   0.000E+00           T           F   0.000E+00   0.000E+00   6.300E-01   0.000E+00   0.000E+00   0.000E+00   0.000E+00   0.000E+00   0.000E+00   0.000E+00      2   152   153
   173          -1           0          12     -2.8867    -15.0000     10.0000      0.6316   8.000E-01   0.000E+00   1.750E-02   0.000E+00   0.000E+00           T           F   0.000E+00   0.000E+00   6.300E-01   0.000E+00   0.000E+00   0.000E+00   0.000E+00   0.000E+00   0.000E+00   0.000E+00      2   153   154
   174          -1           0          12     -2.0207    -15.5000     10.0000      0.6579   8.000E-01   0.000E+00   1.750E-02   0.000E+00   0.000E+00           T           F   0.000E+00   0.000E+00   6.300E-01   0.000E+00   0.000E+00   0.000E+00   0.000E+00   0.000E+00   0.000E+00   0.000E+00      2   154   155
   175          -1           0          12     -1.1547    -16.0000     10.0000      0.6842   8.000E-01   0.000E+00   1.750E-02   0.000E+00   0.000E+00           T           F   0.000E+00   0.000E+00   6.300E-01   0.000E+00   0.000E+00   0.000E+00   0.000E+00   0.000E+00   0.000E+00   0.000E+00      2   155   156
   176          -1           0          12     -0.2887    -16.5000     10.0000      0.7105   8.000E-01   0.000E+00   1.750E-02   0.000E+00   0.000E+00           T           F   0.000E+00   0.000E+00   6.300E-01   0.000E+00   0.000E+00   0.000E+00   0.000E+00   0.000E+00   0.000E+00   0.000E+00      2   156   157
   177          -1           0          12      0.5774    -17.0000     10.0000      0.7368   8.000E-01   0.000E+00   1.750E-02   0.000E+00   0.000E+00           T           F   0.000E+00   0.000E+00   6.300E-01   0.000E+00   0.000E+00   0.000E+00   0.000E+00   0.000E+00   0.000E+00   0.000E+00      2   157   158
   178          -1           0          12      1.4434    -17.5000     10.0000      0.7632   8.000E-01   0.000E+00   1.750E-02   0.000E+00   0.000E+00           T           F   0.000E+00   0.000E+00   6.300E-01   0.000E+00   0.000E+00   0.000E+00   0.000E+00   0.000E+00   0.000E+00   0.000E+00      2   158   159
   179          -1           0          12      2.3094    -18.0000     10.0000      0.7895   8.000E-01   0.000E+00   1.750E-02   0.000E+00   0.000E+00           T           F   0.000E+00   0.000E+00   6.300E-01   0.000E+00   0.000E+00   0.000E+00   0.000E+00   0.000E+00   0.000E+00   0.000E+00      2   159   160
   180          -1           0          12      3.1754    -18.5000     10.0000      0.8158   8.000E-01   0.000E+00   1.750E-02   0.000E+00   0.000E+00           T           F   0.000E+00   0.000E+00   6.300E-01   0.000E+00   0.000E+00   0.000E+00   0.000E+00   0.000E+00   0.000E+00   0.000E+00      2   160   161
   181          -1           0          12      4.0415    -19.0000     10.0000      0.8421   8.000E-01   0.000E+00   1.750E-02   0.000E+00   0.000E+00           T           F   0.000E+00   0.000E+00   6.300E-01   0.000E+00   0.000E+00   0.000E+00   0.000E+00   0.000E+00   0.000E+00   0.000E+00      2   161   162
   182          -1           0          12      4.9075    -19.5000     10.0000      0.8684   8.000E-01   0.000E+00   1.750E-02   0.000E+00   0.000E+00           T           F   0.000E+00   0.000E+00   6.300E-01   0.000E+00   0.000E+00   0.000E+00   0.000E+00   0.000E+00   0.000E+00   0.000E+00      2   162   163
   183          -1           0          12      5.7735    -20.0000     10.0000      0.8947   8.000E-01   0.000E+00   1.750E-02   0.000E+00   0.000E+00           T           F   0.000E+00   0.000E+00   6.300E-01   0.000E+00   0.000E+00   0.000E+00   0.000E+00   0.000E+00   0.000E+00   0.000E+00      2   163   164
   184          -1           0          12      6.6395    -20.5000     10.0000      0.9211   8.000E-01   0.000E+00   1.750E-02   0.000E+00   0.000E+00           T           F   0.000E+00   0.000E+00   6.300E-01   0.000E+00   0.000E+00   0.000E+00   0.000E+00   0.000E+00   0.000E+00   0.000E+00      2   164   165
   185          -1           0          12      7.5055    -21.0000     10.0000      0.9474   8.000E-01   0.000E+00   1.750E-02   0.000E+00   0.000E+00           T           F   0.000E+00   0.000E+00   6.300E-01   0.000E+00   0.000E+00   0.000E+00   0.000E+00   0.000E+00   0.000E+00   0.000E+00      2   165   166
   186          -1           0          12      8.3716    -21.5000     10.0000      0.9737   8.000E-01   0.000E+00   1.750E-02   0.000E+00   0.000E+00           T           F   0.000E+00   0.000E+00   6.300E-01   0.000E+00   0.000E+00   0.000E+00   0.000E+00   0.000E+00   0.000E+00   0.000E+00      2   166   167
   187          -1           0          13     14.4337    -18.0000     10.0000      0.0263   8.000E-01   0.000E+00   1.750E-02   0.000E+00   0.000E+00           T           F   0.000E+00   0.000E+00   6.300E-01   0.000E+00   0.000E+00   0.000E+00   0.000E+00   0.000E+00   0.000E+00   0.000E+00      2    13   168
   188          -1           0          13     14.4337    -17.0000     10.0000      0.0526   8.000E-01   0.000E+00   1.750E-02   0.000E+00   0.000E+00           T           F   0.000E+00   0.000E+00   6.300E-01   0.000E+00   0.000E+00   0.000E+00   0.000E+00   0.000E+00   0.000E+00   0.000E+00      2   168   169
   189          -1           0          13     14.4337    -16.0000     10.0000      0.0789   8.000E-01   0.000E+00   1.750E-02   0.000E+00   0.000E+00           T           F   0.000E+00   0.000E+00   6.300E-01   0.000E+00   0.000E+00   0.000E+00   0.000E+00   0.000E+00   0.000E+00   0.000E+00      2   169   170
   190          -1           0          13     14.4337    -15.0000     10.0000      0.1053   8.000E-01   0.000E+00   1.750E-02   0.000E+00   0.000E+00           T           F   0.000E+00   0.000E+00   6.300E-01   0.000E+00   0.000E+00   0.000E+00   0.000E+00   0.000E+00   0.000E+00   0.000E+00      2   170   171
   191          -1           0          13     14.4337    -14.0000     10.0000      0.1316   8.000E-01   0.000E+00   1.750E-02   0.000E+00   0.000E+00           T           F   0.000E+00   0.000E+00   6.300E-01   0.000E+00   0.000E+00   0.000E+00   0.000E+00   0.000E+00   0.000E+00   0.000E+00      2   171   172
   192          -1           0          13     14.4337    -13.0000     10.0000      0.1579   8.000E-01   0.000E+00   1.750E-02   0.000E+00   0.000E+00           T           F   0.000E+00   0.000E+00   6.300E-01   0.000E+00   0.000E+00   0.000E+00   0.000E+00   0.000E+00   0.000E+00   0.000E+00      2   172   173
   193          -1           0          13     14.4337    -12.0000     10.0000      0.1842   8.000E-01   0.000E+00   1.750E-02   0.000E+00   0.000E+00           T           F   0.000E+00   0.000E+00   6.300E-01   0.000E+00   0.000E+00   0.000E+00   0.000E+00   0.000E+00   0.000E+00   0.000E+00      2   173   174
   194          -1           0          13     14.4337    -11.0000     10.0000      0.2105   8.000E-01   0.000E+00   1.750E-02   0.000E+00   0.000E+00           T           F   0.000E+00   0.000E+00   6.300E-01   0.000E+00   0.000E+00   0.000E+00   0.000E+00   0.000E+00   0.000E+00   0.000E+00      2   174   175
   195          -1           0          13     14.4337    -10.0000     10.0000      0.2368   8.000E-01   0.000E+00   1.750E-02   0.000E+00   0.000E+00           T           F   0.000E+00   0.000E+00   6.300E-01   0.000E+00   0.000E+00   0.000E+00   0.000E+00   0.000E+00   0.000E+00   0.000E+00      2   175   176
   196          -1           0          13     14.4337     -9.0000     10.0000      0.2632   8.000E-01   0.000E+00   1.750E-02   0.000E+00   0.000E+00           T           F   0.000E+00   0.000E+00   6.300E-01   0.000E+00   0.000E+00   0.000E+00   0.000E+00   0.000E+00   0.000E+00   0.000E+00      2   176   177
   197          -1           0          13     14.4338     -8.0000     10.0000      0.2895   8.000E-01   0.000E+00   1.750E-02   0.000E+00   0.000E+00           T           F   0.000E+00   0.000E+00   6.300E-01   0.000E+00   0.000E+00   0.000E+00   0.000E+00   0.000E+00   0.000E+00   0.000E+00      2   177   178
   198          -1           0          13     14.4338     -7.0000     10.0000      0.3158   8.000E-01   0.000E+00   1.750E-02   0.000E+00   0.000E+00           T           F   0.000E+00   0.000E+00   6.300E-01   0.000E+00   0.000E+00   0.000E+00   0.000E+00   0.000E+00   0.000E+00   0.000E+00      2   178   179
   199          -1           0          13     14.4338     -6.0000     10.0000      0.3421   8.000E-01   0.000E+00   1.750E-02   0.000E+00   0.000E+00           T           F   0.000E+00   0.000E+00   6.300E-01   0.000E+00   0.000E+00   0.000E+00   0.000E+00   0.000E+00   0.000E+00   0.000E+00      2   179   180
   200          -1           0          13     14.4337     -5.0000     10.0000      0.3684   8.000E-01   0.000E+00   1.750E-02   0.000E+00   0.000E+00           T           F   0.000E+00   0.000E+00   6.300E-01   0.000E+00   0.000E+00   0.000E+00   0.000E+00   0.000E+00   0.000E+00   0.000E+00      2   180   181
   201          -1           0          13     14.4337     -4.0000     10.0000      0.3947   8.000E-01   0.000E+00   1.750E-02   0.000E+00   0.000E+00           T           F   0.000E+00   0.000E+00   6.300E-01   0.000E+00   0.000E+00   0.000E+00   0.000E+00   0.000E+00   0.000E+00   0.000E+00      2   181   182
   202          -1           0          13     14.4337     -3.0000     10.0000      0.4211   8.000E-01   0.000E+00   1.750E-02   0.000E+00   0.000E+00           T           F   0.000E+00   0.000E+00   6.300E-01   0.000E+00   0.000E+00   0.000E+00   0.000E+00   0.000E+00   0.000E+00   0.000E+00      2   182   183
   203          -1           0          13     14.4337     -2.0000     10.0000      0.4474   8.000E-01   0.000E+00   1.750E-02   0.000E+00   0.000E+00           T           F   0.000E+00   0.000E+00   6.300E-01   0.000E+00   0.000E+00   0.000E+00   0.000E+00   0.000E+00   0.000E+00   0.000E+00      2   183   184
   204          -1           0          13     14.4337     -1.0000     10.0000      0.4737   8.000E-01   0.000E+00   1.750E-02   0.000E+00   0.000E+00           T           F   0.000E+00   0.000E+00   6.300E-01   0.000E+00   0.000E+00   0.000E+00   0.000E+00   0.000E+00   0.000E+00   0.000E+00      2   184   185
   205          -1           0          13     14.4337     -0.0000     10.0000      0.5000   8.000E-01   0.000E+00   1.750E-02   0.000E+00   0.000E+00           T           F   0.000E+00   0.000E+00   6.300E-01   0.000E+00   0.000E+00   0.000E+00   0.000E+00   0.000E+00   0.000E+00   0.000E+00      2   185   186
   206          -1           0          13     14.4338      1.0000     10.0000      0.5263   8.000E-01   0.000E+00   1.750E-02   0.000E+00   0.000E+00           T           F   0.000E+00   0.000E+00   6.300E-01   0.000E+00   0.000E+00   0.000E+00   0.000E+00   0.000E+00   0.000E+00   0.000E+00      2   186   187
   207          -1           0          13     14.4338      2.0000     10.0000      0.5526   8.000E-01   0.000E+00   1.750E-02   0.000E+00   0.000E+00           T           F   0.000E+00   0.000E+00   6.300E-01   0.000E+00   0.000E+00   0.000E+00   0.000E+00   0.000E+00   0.000E+00   0.000E+00      2   187   188
   208          -1           0          13     14.4338      3.0000     10.0000      0.5789   8.000E-01   0.000E+00   1.750E-02   0.000E+00   0.000E+00           T           F   0.000E+00   0.000E+00   6.300E-01   0.000E+00   0.000E+00   0.000E+00   0.000E+00   0.000E+00   0.000E+00   0.000E+00      2   188   189
   209          -1           0          13     14.4338      4.0000     10.0000      0.6053   8.000E-01   0.000E+00   1.750E-02   0.000E+00   0.000E+00           T           F   0.000E+00   0.000E+00   6.300E-01   0.000E+00   0.000E+00   0.000E+00   0.000E+00   0.000E+00   0.000E+00   0.000E+00      2   189   190
   210          -1           0          13     14.4338      5.0000     10.0000      0.6316   8.000E-01   0.000E+00   1.750E-02   0.000E+00   0.000E+00           T           F   0.000E+00   0.000E+00   6.300E-01   0.000E+00   0.000E+00   0.000E+00   0.000E+00   0.000E+00   0.000E+00   0.000E+00      2   190   191
   211          -1           0          13     14.4338      6.0000     10.0000      0.6579   8.000E-01   0.000E+00   1.750E-02   0.000E+00   0.000E+00           T           F   0.000E+00   0.000E+00   6.300E-01   0.000E+00   0.000E+00   0.000E+00   0.000E+00   0.000E+00   0.000E+00   0.000E+00      2   191   192
   212          -1           0          13     14.4338      7.0000     10.0000      0.6842   8.000E-01   0.000E+00   1.750E-02   0.000E+00   0.000E+00           T           F   0.000E+00   0.000E+00   6.300E-01   0.000E+00   0.000E+00   0.000E+00   0.000E+00   0.000E+00   0.000E+00   0.000E+00      2   192   193
   213          -1           0          13     14.4338      8.0000     10.0000      0.7105   8.000E-01   0.000E+00   1.750E-02   0.000E+00   0.000E+00           T           F   0.000E+00   0.000E+00   6.300E-01   0.000E+00   0.000E+00   0.000E+00   0.000E+00   0.000E+00   0.000E+00   0.000E+00      2   193   194
   214          -1           0          13     14.4338      9.0000     10.0000      0.7368   8.000E-01   0.000E+00   1.750E-02   0.000E+00   0.000E+00           T           F   0.000E+00   0.000E+00   6.300E-01   0.000E+00   0.000E+00   0.000E+00   0.000E+00   0.000E+00   0.000E+00   0.000E+00      2   194   195
   215          -1           0          13     14.4338     10.0000     10.0000      0.7632   8.000E-01   0.000E+00   1.750E-02   0.000E+00   0.000E+00           T           F   0.000E+00   0.000E+00   6.300E-01   0.000E+00   0.000E+00   0.000E+00   0.000E+00   0.000E+00   0.000E+00   0.000E+00      2   195   196
   216          -1           0          13     14.4338     11.0000     10.0000      0.7895   8.000E-01   0.000E+00   1.750E-02   0.000E+00   0.000E+00           T           F   0.000E+00   0.000E+00   6.300E-01   0.000E+00   0.000E+00   0.000E+00   0.000E+00   0.000E+00   0.000E+00   0.000E+00      2   196   197
   217          -1           0          13     14.4338     12.0000     10.0000      0.8158   8.000E-01   0.000E+00   1.750E-02   0.000E+00   0.000E+00           T           F   0.000E+00   0.000E+00   6.300E-01   0.000E+00   0.000E+00   0.000E+00   0.000E+00   0.000E+00   0.000E+00   0.000E+00      2   197   198
   218          -1           0          13     14.4338     13.0000     10.0000      0.8421   8.000E-01   0.000E+00   1.750E-02   0.000E+00   0.000E+00           T           F   0.000E+00   0.000E+00   6.300E-01   0.000E+00   0.000E+00   0.000E+00   0.000E+00   0.000E+00   0.000E+00   0.000E+00      2   198   199
   219          -1           0          13     14.4338     14.0000     10.0000      0.8684   8.000E-01   0.000E+00   1.750E-02   0.000E+00   0.000E+00           T           F   0.000E+00   0.000E+00   6.300E-01   0.000E+00   0.000E+00   0.000E+00   0.000E+00   0.000E+00   0.000E+00   0.000E+00      2   199   200
   220          -1           0          13     14.4338     15.0000     10.0000      0.8947   8.000E-01   0.000E+00   1.750E-02   0.000E+00   0.000E+00           T           F   0.000E+00   0.000E+00   6.300E-01   0.000E+00   0.000E+00   0.000E+00   0.000E+00   0.000E+00   0.000E+00   0.000E+00      2   200   201
   221          -1           0          13     14.4338     16.0000     10.0000      0.9211   8.000E-01   0.000E+00   1.750E-02   0.000E+00   0.000E+00           T           F   0.000E+00   0.000E+00   6.300E-01   0.000E+00   0.000E+00   0.000E+00   0.000E+00   0.000E+00   0.000E+00   0.000E+00      2   201   202
   222          -1           0          13     14.4338     17.0000     10.0000      0.9474   8.000E-01   0.000E+00   1.750E-02   0.000E+00   0.000E+00           T           F   0.000E+00   0.000E+00   6.300E-01   0.000E+00   0.000E+00   0.000E+00   0.000E+00   0.000E+00   0.000E+00   0.000E+00      2   202   203
   223          -1           0          13     14.4338     18.0000     10.0000      0.9737   8.000E-01   0.000E+00   1.750E-02   0.000E+00   0.000E+00           T           F   0.000E+00   0.000E+00   6.300E-01   0.000E+00   0.000E+00   0.000E+00   0.000E+00   0.000E+00   0.000E+00   0.000E+00      2   203   204
   224          -1           0          14    -17.6092      6.5000    -17.0000      0.9615   8.000E-01   0.000E+00   1.750E-02   0.000E+00   0.000E+00           T           F   0.000E+00   0.000E+00   6.300E-01   0.000E+00   0.000E+00   0.000E+00   0.000E+00   0.000E+00   0.000E+00   0.000E+00      2    14   205
   225          -1           0          14    -16.7432      7.0000    -17.0000      0.9231   8.000E-01   0.000E+00   1.750E-02   0.000E+00   0.000E+00           T           F   0.000E+00   0.000E+00   6.300E-01   0.000E+00   0.000E+00   0.000E+00   0.000E+00   0.000E+00   0.000E+00   0.000E+00      2   205   206
   226          -1           0          14    -15.8771      7.5000    -17.0000      0.8846   8.000E-01   0.000E+00   1.750E-02   0.000E+00   0.000E+00           T           F   0.000E+00   0.000E+00   6.300E-01   0.000E+00   0.000E+00   0.000E+00   0.000E+00   0.000E+00   0.000E+00   0.000E+00      2   206   207
   227          -1           0          14    -15.0111      8.0000    -17.0000      0.8462   8.000E-01   0.000E+00   1.750E-02   0.000E+00   0.000E+00           T           F   0.000E+00   0.000E+00   6.300E-01   0.000E+00   0.000E+00   0.000E+00   0.000E+00   0.000E+00   0.000E+00   0.000E+00      2   207   208
   228          -1           0          14    -14.1451      8.5000    -17.0000      0.8077   8.000E-01   0.000E+00   1.750E-02   0.000E+00   0.000E+00           T           F   0.000E+00   0.000E+00   6.300E-01   0.000E+00   0.000E+00   0.000E+00   0.000E+00   0.000E+00   0.000E+00   0.000E+00      2   208   209
   229          -1           0          14    -13.2790      9.0000    -17.0000      0.7692   8.000E-01   0.000E+00   1.750E-02   0.000E+00   0.000E+00           T           F   0.000E+00   0.000E+00   6.300E-01   0.000E+00   0.000E+00   0.000E+00   0.000E+00   0.000E+00   0.000E+00   0.000E+00      2   209   210
   230          -1           0          14    -12.4130      9.5000    -17.0000      0.7308   8.000E-01   0.000E+00   1.750E-02   0.000E+00   0.000E+00           T           F   0.000E+00   0.000E+00   6.300E-01   0.000E+00   0.000E+00   0.000E+00   0.000E+00   0.000E+00   0.000E+00   0.000E+00      2   210   211
   231          -1           0          14    -11.5470     10.0000    -17.0000      0.6923   8.000E-01   0.000E+00   1.750E-02   0.000E+00   0.000E+00           T           F   0.000E+00   0.000E+00   6.300E-01   0.000E+00   0.000E+00   0.000E+00   0.000E+00   0.000E+00   0.000E+00   0.000E+00      2   211   212
   232          -1           0          14    -10.6810     10.5000    -17.0000      0.6538   8.000E-01   0.000E+00   1.750E-02   0.000E+00   0.000E+00           T           F   0.000E+00   0.000E+00   6.300E-01   0.000E+00   0.000E+00   0.000E+00   0.000E+00   0.000E+00   0.000E+00   0.000E+00      2   212   213
   233          -1           0          14     -9.8149     11.0000    -17.0000      0.6154   8.000E-01   0.000E+00   1.750E-02   0.000E+00   0.000E+00           T           F   0.000E+00   0.000E+00   6.300E-01   0.000E+00   0.000E+00   0.000E+00   0.000E+00   0.000E+00   0.000E+00   0.000E+00      2   213   214
   234          -1           0          14     -8.9489     11.5000    -17.0000      0.5769   8.000E-01   0.000E+00   1.750E-02   0.000E+00   0.000E+00           T           F   0.000E+00   0.000E+00   6.300E-01   0.000E+00   0.000E+00   0.000E+00   0.000E+00   0.000E+00   0.000E+00   0.000E+00      2   214   215
   235          -1           0          14     -8.0829     12.0000    -17.0000      0.5385   8.000E-01   0.000E+00   1.750E-02   0.000E+00   0.000E+00           T           F   0.000E+00   0.000E+00   6.300E-01   0.000E+00   0.000E+00   0.000E+00   0.000E+00   0.000E+00   0.000E+00   0.000E+00      2   215   216
   236          -1           0          14     -7.2169     12.5000    -17.0000      0.5000   8.000E-01   0.000E+00   1.750E-02   0.000E+00   0.000E+00           T           F   0.000E+00   0.000E+00   6.300E-01   0.000E+00   0.000E+00   0.000E+00   0.000E+00   0.000E+00   0.000E+00   0.000E+00      2   216   217
   237          -1           0          14     -6.3509     13.0000    -17.0000      0.4615   8.000E-01   0.000E+00   1.750E-02   0.000E+00   0.000E+00           T           F   0.000E+00   0.000E+00   6.300E-01   0.000E+00   0.000E+00   0.000E+00   0.000E+00   0.000E+00   0.000E+00   0.000E+00      2   217   218
   238          -1           0          14     -5.4848     13.5000    -17.0000      0.4231   8.000E-01   0.000E+00   1.750E-02   0.000E+00   0.000E+00           T           F   0.000E+00   0.000E+00   6.300E-01   0.000E+00   0.000E+00   0.000E+00   0.000E+00   0.000E+00   0.000E+00   0.000E+00      2   218   219
   239          -1           0          14     -4.6188     14.0000    -17.0000      0.3846   8.000E-01   0.000E+00   1.750E-02   0.000E+00   0.000E+00           T           F   0.000E+00   0.000E+00   6.300E-01   0.000E+00   0.000E+00   0.000E+00   0.000E+00   0.000E+00   0.000E+00   0.000E+00      2   219   220
   240          -1           0          14     -3.7528     14.5000    -17.0000      0.3462   8.000E-01   0.000E+00   1.750E-02   0.000E+00   0.000E+00           T           F   0.000E+00   0.000E+00   6.300E-01   0.000E+00   0.000E+00   0.000E+00   0.000E+00   0.000E+00   0.000E+00   0.000E+00      2   220   221
   241          -1           0          14     -2.8867     15.0000    -17.0000      0.3077   8.000E-01   0.000E+00   1.750E-02   0.000E+00   0.000E+00           T           F   0.000E+00   0.000E+00   6.300E-01   0.000E+00   0.000E+00   0.000E+00   0.000E+00   0.000E+00   0.000E+00   0.000E+00      2   221   222
   242          -1           0          14     -2.0207     15.5000    -17.0000      0.2692   8.000E-01   0.000E+00   1.750E-02   0.000E+00   0.000E+00           T           F   0.000E+00   0.000E+00   6.300E-01   0.000E+00   0.000E+00   0.000E+00   0.000E+00   0.000E+00   0.000E+00   0.000E+00      2   222   223
   243          -1           0          14     -1.1547     16.0000    -17.0000      0.2308   8.000E-01   0.000E+00   1.750E-02   0.000E+00   0.000E+00           T           F   0.000E+00   0.000E+00   6.300E-01   0.000E+00   0.000E+00   0.000E+00   0.000E+00   0.000E+00   0.000E+00   0.000E+00      2   223   224
   244          -1           0          14     -0.2887     16.5000    -17.0000      0.1923   8.000E-01   0.000E+00   1.750E-02   0.000E+00   0.000E+00           T           F   0.000E+00   0.000E+00   6.300E-01   0.000E+00   0.000E+00   0.000E+00   0.000E+00   0.000E+00   0.000E+00   0.000E+00      2   224   225
[...]
       4752   0.59400E+02       7.19360E+03       0.00000E+00       4.79890E+01       0.00000E+00      -3.30564E+04       0.00000E+00       7.21589E+03       0.00000E+00       3.28772E+04       0.00000E+00       8.23774E+01      -1.38430E+03       0.00000E+00      -4.25810E+01       0.00000E+00       2.97056E+05       0.00000E+00       2.84118E+02       2.96318E+05       0.00000E+00       1.09505E+06
       4753   0.59413E+02       7.13188E+03       0.00000E+00       4.90244E+01       0.00000E+00      -3.36291E+04       0.00000E+00       7.15386E+03       0.00000E+00       3.34633E+04       0.00000E+00       7.88706E+01      -1.42227E+03       0.00000E+00      -4.38858E+01       0.00000E+00       2.99387E+05       0.00000E+00       2.76543E+02       2.98175E+05       0.00000E+00       1.12932E+06
       4754   0.59425E+02       7.04747E+03       0.00000E+00       4.97796E+01       0.00000E+00      -3.41692E+04       0.00000E+00       7.06848E+03       0.00000E+00       3.39951E+04       0.00000E+00       7.50562E+01      -1.46007E+03       0.00000E+00      -4.51848E+01       0.00000E+00       3.01848E+05       0.00000E+00       2.68272E+02       3.01056E+05       0.00000E+00       1.14579E+06
       4755   0.59438E+02       6.96060E+03       0.00000E+00       5.02487E+01       0.00000E+00      -3.47334E+04       0.00000E+00       6.98125E+03       0.00000E+00       3.45745E+04       0.00000E+00       7.09455E+01      -1.49725E+03       0.00000E+00      -4.64778E+01       0.00000E+00       3.04082E+05       0.00000E+00       2.59277E+02       3.02801E+05       0.00000E+00       1.17040E+06
       4756   0.59450E+02       6.85173E+03       0.00000E+00       5.04380E+01       0.00000E+00      -3.52631E+04       0.00000E+00       6.87115E+03       0.00000E+00       3.50993E+04       0.00000E+00       6.65472E+01      -1.53424E+03       0.00000E+00      -4.77645E+01       0.00000E+00       3.06435E+05       0.00000E+00       2.49633E+02       3.05562E+05       0.00000E+00       1.17730E+06
       4757   0.59463E+02       6.74107E+03       0.00000E+00       5.03445E+01       0.00000E+00      -3.58197E+04       0.00000E+00       6.76018E+03       0.00000E+00       3.56694E+04       0.00000E+00       6.18746E+01      -1.57057E+03       0.00000E+00      -4.90448E+01       0.00000E+00       3.08527E+05       0.00000E+00       2.39317E+02       3.07172E+05       0.00000E+00       1.19252E+06
       4758   0.59475E+02       6.60939E+03       0.00000E+00       4.99767E+01       0.00000E+00      -3.63392E+04       0.00000E+00       6.62720E+03       0.00000E+00       3.61847E+04       0.00000E+00       5.69385E+01      -1.60665E+03       0.00000E+00      -5.03180E+01       0.00000E+00       3.10777E+05       0.00000E+00       2.28408E+02       3.09835E+05       0.00000E+00       1.19013E+06
       4759   0.59488E+02       6.47660E+03       0.00000E+00       4.93341E+01       0.00000E+00      -3.68842E+04       0.00000E+00       6.49414E+03       0.00000E+00       3.67452E+04       0.00000E+00       5.17539E+01      -1.64205E+03       0.00000E+00      -5.15839E+01       0.00000E+00       3.12723E+05       0.00000E+00       2.16888E+02       3.11297E+05       0.00000E+00       1.19625E+06
       4760   0.59500E+02       6.32373E+03       0.00000E+00       4.84279E+01       0.00000E+00      -3.73939E+04       0.00000E+00       6.34005E+03       0.00000E+00       3.72480E+04       0.00000E+00       4.63336E+01      -1.67714E+03       0.00000E+00      -5.28417E+01       0.00000E+00       3.14832E+05       0.00000E+00       2.04839E+02       3.13836E+05       0.00000E+00       1.18505E+06
       4761   0.59513E+02       6.17112E+03       0.00000E+00       4.72601E+01       0.00000E+00      -3.79243E+04       0.00000E+00       6.18695E+03       0.00000E+00       3.77978E+04       0.00000E+00       4.06942E+01      -1.71150E+03       0.00000E+00      -5.40910E+01       0.00000E+00       3.16667E+05       0.00000E+00       1.92247E+02       3.15172E+05       0.00000E+00       1.18240E+06
       4762   0.59525E+02       5.99957E+03       0.00000E+00       4.58439E+01       0.00000E+00      -3.84196E+04       0.00000E+00       6.01397E+03       0.00000E+00       3.82891E+04       0.00000E+00       3.48502E+01      -1.74551E+03       0.00000E+00      -5.53308E+01       0.00000E+00       3.18642E+05       0.00000E+00       1.79198E+02       3.17590E+05       0.00000E+00       1.16283E+06
       4763   0.59538E+02       5.82912E+03       0.00000E+00       4.41838E+01       0.00000E+00      -3.89367E+04       0.00000E+00       5.84318E+03       0.00000E+00       3.88243E+04       0.00000E+00       2.88196E+01      -1.77876E+03       0.00000E+00      -5.65606E+01       0.00000E+00       3.20363E+05       0.00000E+00       1.65683E+02       3.18795E+05       0.00000E+00       1.15206E+06
       4764   0.59550E+02       5.64117E+03       0.00000E+00       4.22951E+01       0.00000E+00      -3.94172E+04       0.00000E+00       5.65365E+03       0.00000E+00       3.93011E+04       0.00000E+00       2.26182E+01      -1.81162E+03       0.00000E+00      -5.77791E+01       0.00000E+00       3.22219E+05       0.00000E+00       1.51789E+02       3.21085E+05       0.00000E+00       1.12460E+06
       4765   0.59562E+02       5.45551E+03       0.00000E+00       4.01841E+01       0.00000E+00      -3.99180E+04       0.00000E+00       5.46783E+03       0.00000E+00       3.98213E+04       0.00000E+00       1.62657E+01      -1.84366E+03       0.00000E+00      -5.89859E+01       0.00000E+00       3.23809E+05       0.00000E+00       1.37510E+02       3.22171E+05       0.00000E+00       1.10655E+06
       4766   0.59575E+02       5.25365E+03       0.00000E+00       3.78684E+01       0.00000E+00      -4.03814E+04       0.00000E+00       5.26453E+03       0.00000E+00       4.02825E+04       0.00000E+00       9.77891E+00      -1.87527E+03       0.00000E+00      -6.01796E+01       0.00000E+00       3.25536E+05       0.00000E+00       1.22938E+02       3.24321E+05       0.00000E+00       1.07217E+06
       4767   0.59588E+02       5.05577E+03       0.00000E+00       3.53561E+01       0.00000E+00      -4.08651E+04       0.00000E+00       5.06621E+03       0.00000E+00       4.07853E+04       0.00000E+00       3.17841E+00      -1.90602E+03       0.00000E+00      -6.13594E+01       0.00000E+00       3.27009E+05       0.00000E+00       1.08067E+02       3.25301E+05       0.00000E+00       1.04743E+06
       4768   0.59600E+02       4.84288E+03       0.00000E+00       3.26663E+01       0.00000E+00      -4.13107E+04       0.00000E+00       4.85205E+03       0.00000E+00       4.12288E+04       0.00000E+00      -3.51778E+00      -1.93631E+03       0.00000E+00      -6.25239E+01       0.00000E+00       3.28608E+05       0.00000E+00       9.29917E+01       3.27339E+05       0.00000E+00       1.00663E+06
       4769   0.59613E+02       4.63564E+03       0.00000E+00       2.98087E+01       0.00000E+00      -4.17744E+04       0.00000E+00       4.64415E+03       0.00000E+00       4.17128E+04       0.00000E+00      -1.02884E+01      -1.96569E+03       0.00000E+00      -6.36722E+01       0.00000E+00       3.29967E+05       0.00000E+00       7.77086E+01       3.28188E+05       0.00000E+00       9.76469E+05
       4770   0.59625E+02       4.41472E+03       0.00000E+00       2.68039E+01       0.00000E+00      -4.21990E+04       0.00000E+00       4.42208E+03       0.00000E+00       4.21367E+04       0.00000E+00      -1.71146E+01      -1.99455E+03       0.00000E+00      -6.48028E+01       0.00000E+00       3.31462E+05       0.00000E+00       6.23134E+01       3.30124E+05       0.00000E+00       9.30393E+05
       4771   0.59638E+02       4.20100E+03       0.00000E+00       2.36628E+01       0.00000E+00      -4.26441E+04       0.00000E+00       4.20764E+03       0.00000E+00       4.26006E+04       0.00000E+00      -2.39747E+01      -2.02251E+03       0.00000E+00      -6.59147E+01       0.00000E+00       3.32687E+05       0.00000E+00       4.68047E+01       3.30846E+05       0.00000E+00       8.95532E+05
       4772   0.59650E+02       3.97525E+03       0.00000E+00       2.04072E+01       0.00000E+00      -4.30455E+04       0.00000E+00       3.98059E+03       0.00000E+00       4.30029E+04       0.00000E+00      -3.08494E+01      -2.04988E+03       0.00000E+00      -6.70064E+01       0.00000E+00       3.34029E+05       0.00000E+00       3.12782E+01       3.32650E+05       0.00000E+00       8.45524E+05
       4773   0.59663E+02       3.75810E+03       0.00000E+00       1.70490E+01       0.00000E+00      -4.34702E+04       0.00000E+00       3.76293E+03       0.00000E+00       4.34457E+04       0.00000E+00      -3.77166E+01      -2.07631E+03       0.00000E+00      -6.80767E+01       0.00000E+00       3.35176E+05       0.00000E+00       1.57334E+01       3.33273E+05       0.00000E+00       8.06704E+05
       4774   0.59675E+02       3.53056E+03       0.00000E+00       1.36107E+01       0.00000E+00      -4.38494E+04       0.00000E+00       3.53408E+03       0.00000E+00       4.38255E+04       0.00000E+00      -4.45569E+01      -2.10213E+03       0.00000E+00      -6.91240E+01       0.00000E+00       3.36432E+05       0.00000E+00       2.66667E-01       3.34957E+05       0.00000E+00       7.53336E+05
       4775   0.59688E+02       3.31328E+03       0.00000E+00       1.01050E+01       0.00000E+00      -4.42503E+04       0.00000E+00       3.31632E+03       0.00000E+00       4.42446E+04       0.00000E+00      -5.13481E+01      -2.12695E+03       0.00000E+00      -7.01473E+01       0.00000E+00       3.37443E+05       0.00000E+00      -1.51228E+01       3.35482E+05       0.00000E+00       7.12069E+05
       4776   0.59700E+02       3.08715E+03       0.00000E+00       6.55484E+00       0.00000E+00      -4.46071E+04       0.00000E+00       3.08885E+03       0.00000E+00       4.46003E+04       0.00000E+00      -5.80710E+01      -2.15113E+03       0.00000E+00      -7.11448E+01       0.00000E+00       3.38603E+05       0.00000E+00      -3.03388E+01       3.37060E+05       0.00000E+00       6.56671E+05
       4777   0.59713E+02       2.87283E+03       0.00000E+00       2.97316E+00       0.00000E+00      -4.49818E+04       0.00000E+00       2.87409E+03       0.00000E+00       4.49950E+04       0.00000E+00      -6.47038E+01      -2.17429E+03       0.00000E+00      -7.21154E+01       0.00000E+00       3.39491E+05       0.00000E+00      -4.53826E+01       3.37475E+05       0.00000E+00       6.13803E+05
       4778   0.59725E+02       2.65131E+03       0.00000E+00      -6.16761E-01       0.00000E+00      -4.53129E+04       0.00000E+00       2.65131E+03       0.00000E+00       4.53248E+04       0.00000E+00      -7.12274E+01      -2.19680E+03       0.00000E+00      -7.30574E+01       0.00000E+00       3.40541E+05       0.00000E+00      -6.01592E+01       3.38958E+05       0.00000E+00       5.57602E+05
       4779   0.59738E+02       2.44302E+03       0.00000E+00      -4.20210E+00       0.00000E+00      -4.56619E+04       0.00000E+00       2.44256E+03       0.00000E+00       4.56936E+04       0.00000E+00      -7.76205E+01      -2.21819E+03       0.00000E+00      -7.39696E+01       0.00000E+00       3.41334E+05       0.00000E+00      -7.46708E+01       3.39263E+05       0.00000E+00       5.14144E+05
       4780   0.59750E+02       2.22901E+03       0.00000E+00      -7.75972E+00       0.00000E+00      -4.59657E+04       0.00000E+00       2.22731E+03       0.00000E+00       4.59955E+04       0.00000E+00      -8.38649E+01      -2.23889E+03       0.00000E+00      -7.48504E+01       0.00000E+00       3.42275E+05       0.00000E+00      -8.88238E+01       3.40651E+05       0.00000E+00       4.57987E+05
       4781   0.59763E+02       2.02988E+03       0.00000E+00      -1.12771E+01       0.00000E+00      -4.62882E+04       0.00000E+00       2.02787E+03       0.00000E+00       4.63378E+04       0.00000E+00      -8.99399E+01      -2.25853E+03       0.00000E+00      -7.56987E+01       0.00000E+00       3.42976E+05       0.00000E+00      -1.02623E+02       3.40855E+05       0.00000E+00       4.15235E+05
       4782   0.59775E+02       1.82645E+03       0.00000E+00      -1.47316E+01       0.00000E+00      -4.65630E+04       0.00000E+00       1.82336E+03       0.00000E+00       4.66108E+04       0.00000E+00      -9.58284E+01      -2.27741E+03       0.00000E+00      -7.65128E+01       0.00000E+00       3.43818E+05       0.00000E+00      -1.15976E+02       3.42125E+05       0.00000E+00       3.60120E+05
       4783   0.59788E+02       1.63929E+03       0.00000E+00      -1.81112E+01       0.00000E+00      -4.68584E+04       0.00000E+00       1.63583E+03       0.00000E+00       4.69250E+04       0.00000E+00      -1.01510E+02      -2.29518E+03       0.00000E+00      -7.72917E+01       0.00000E+00       3.44425E+05       0.00000E+00      -1.28890E+02       3.42264E+05       0.00000E+00       3.19251E+05
       4784   0.59800E+02       1.44939E+03       0.00000E+00      -2.13943E+01       0.00000E+00      -4.71049E+04       0.00000E+00       1.44469E+03       0.00000E+00       4.71697E+04       0.00000E+00      -1.06970E+02      -2.31220E+03       0.00000E+00      -7.80337E+01       0.00000E+00       3.45184E+05       0.00000E+00      -1.41275E+02       3.43463E+05       0.00000E+00       2.66295E+05
       4785   0.59812E+02       1.27681E+03       0.00000E+00      -2.45698E+01       0.00000E+00      -4.73709E+04       0.00000E+00       1.27204E+03       0.00000E+00       4.74529E+04       0.00000E+00      -1.12189E+02      -2.32805E+03       0.00000E+00      -7.87378E+01       0.00000E+00       3.45690E+05       0.00000E+00      -1.53143E+02       3.43491E+05       0.00000E+00       2.28168E+05
       4786   0.59825E+02       1.10261E+03       0.00000E+00      -2.76169E+01       0.00000E+00      -4.75878E+04       0.00000E+00       1.09696E+03       0.00000E+00       4.76672E+04       0.00000E+00      -1.17152E+02      -2.34313E+03       0.00000E+00      -7.94027E+01       0.00000E+00       3.46344E+05       0.00000E+00      -1.64406E+02       3.44596E+05       0.00000E+00       1.78586E+05
       4787   0.59838E+02       9.47562E+02       0.00000E+00      -3.05261E+01       0.00000E+00      -4.78237E+04       0.00000E+00       9.41509E+02       0.00000E+00       4.79198E+04       0.00000E+00      -1.21844E+02      -2.35703E+03       0.00000E+00      -8.00273E+01       0.00000E+00       3.46778E+05       0.00000E+00      -1.75078E+02       3.44544E+05       0.00000E+00       1.43894E+05
       4788   0.59850E+02       7.91787E+02       0.00000E+00      -3.32778E+01       0.00000E+00      -4.80111E+04       0.00000E+00       7.84853E+02       0.00000E+00       4.81033E+04       0.00000E+00      -1.26249E+02      -2.37013E+03       0.00000E+00      -8.06103E+01       0.00000E+00       3.47382E+05       0.00000E+00      -1.85077E+02       3.45566E+05       0.00000E+00       9.84132E+04
       4789   0.59863E+02       6.56193E+02       0.00000E+00      -3.58640E+01       0.00000E+00      -4.82148E+04       0.00000E+00       6.49076E+02       0.00000E+00       4.83236E+04       0.00000E+00      -1.30354E+02      -2.38204E+03       0.00000E+00      -8.11509E+01       0.00000E+00       3.47699E+05       0.00000E+00      -1.94420E+02       3.45434E+05       0.00000E+00       6.82223E+04
       4790   0.59875E+02       5.21067E+02       0.00000E+00      -3.82667E+01       0.00000E+00      -4.83703E+04       0.00000E+00       5.12960E+02       0.00000E+00       4.84753E+04       0.00000E+00      -1.34147E+02      -2.39312E+03       0.00000E+00      -8.16478E+01       0.00000E+00       3.48201E+05       0.00000E+00      -2.03029E+02       3.46371E+05       0.00000E+00       2.75251E+04
       4791   0.59888E+02       4.06803E+02       0.00000E+00      -4.04797E+01       0.00000E+00      -4.85428E+04       0.00000E+00       3.98788E+02       0.00000E+00       4.86627E+04       0.00000E+00      -1.37615E+02      -2.40300E+03       0.00000E+00      -8.21005E+01       0.00000E+00       3.48456E+05       0.00000E+00      -2.10926E+02       3.46164E+05       0.00000E+00       2.66837E+03
       4792   0.59900E+02       2.93867E+02       0.00000E+00      -4.24870E+01       0.00000E+00      -4.86673E+04       0.00000E+00       2.85227E+02       0.00000E+00       4.87799E+04       0.00000E+00      -1.40748E+02      -2.41204E+03       0.00000E+00      -8.25077E+01       0.00000E+00       3.48870E+05       0.00000E+00      -2.18036E+02       3.47027E+05       0.00000E+00      -3.25495E+04
       4793   0.59913E+02       2.02913E+02       0.00000E+00      -4.42839E+01       0.00000E+00      -4.88068E+04       0.00000E+00       1.94163E+02       0.00000E+00       4.89354E+04       0.00000E+00      -1.43535E+02      -2.41984E+03       0.00000E+00      -8.28689E+01       0.00000E+00       3.49054E+05       0.00000E+00      -2.24387E+02       3.46741E+05       0.00000E+00      -5.14372E+04
       4794   0.59925E+02       1.13920E+02       0.00000E+00      -4.58567E+01       0.00000E+00      -4.88986E+04       0.00000E+00       1.04427E+02       0.00000E+00       4.90197E+04       0.00000E+00      -1.45969E+02      -2.42680E+03       0.00000E+00      -8.31833E+01       0.00000E+00       3.49389E+05       0.00000E+00      -2.29910E+02       3.47518E+05       0.00000E+00      -8.03908E+04
       4795   0.59938E+02       4.74117E+01       0.00000E+00      -4.72031E+01       0.00000E+00      -4.90056E+04       0.00000E+00       3.81433E+01       0.00000E+00       4.91410E+04       0.00000E+00      -1.48041E+02      -2.43251E+03       0.00000E+00      -8.34505E+01       0.00000E+00       3.49499E+05       0.00000E+00      -2.34635E+02       3.47170E+05       0.00000E+00      -9.29937E+04
       4796   0.59950E+02      -1.66400E+01       0.00000E+00      -4.83113E+01       0.00000E+00      -4.90633E+04       0.00000E+00      -2.64533E+01       0.00000E+00       4.91921E+04       0.00000E+00      -1.49746E+02      -2.43737E+03       0.00000E+00      -8.36697E+01       0.00000E+00       3.49785E+05       0.00000E+00      -2.38499E+02       3.47901E+05       0.00000E+00      -1.15343E+05
       4797   0.59963E+02      -5.74733E+01       0.00000E+00      -4.91811E+01       0.00000E+00      -4.91385E+04       0.00000E+00      -6.71550E+01       0.00000E+00       4.92786E+04       0.00000E+00      -1.51077E+02      -2.44099E+03       0.00000E+00      -8.38407E+01       0.00000E+00       3.49792E+05       0.00000E+00      -2.41539E+02       3.47454E+05       0.00000E+00      -1.21178E+05
       4798   0.59975E+02      -9.53600E+01       0.00000E+00      -4.98031E+01       0.00000E+00      -4.91622E+04       0.00000E+00      -1.05493E+02       0.00000E+00       4.92945E+04       0.00000E+00      -1.52031E+02      -2.44372E+03       0.00000E+00      -8.39630E+01       0.00000E+00       3.49976E+05       0.00000E+00      -2.43697E+02       3.48078E+05       0.00000E+00      -1.36752E+05
       4799   0.59988E+02      -1.10285E+02       0.00000E+00      -5.01796E+01       0.00000E+00      -4.92051E+04       0.00000E+00      -1.20166E+02       0.00000E+00       4.93475E+04       0.00000E+00      -1.52605E+02      -2.44523E+03       0.00000E+00      -8.40366E+01       0.00000E+00       3.49939E+05       0.00000E+00      -2.45014E+02       3.47595E+05       0.00000E+00      -1.35415E+05
       4800   0.60000E+02      -1.21707E+02       0.00000E+00      -5.03036E+01       0.00000E+00      -4.91972E+04       0.00000E+00      -1.32160E+02       0.00000E+00       4.93295E+04       0.00000E+00      -1.52796E+02      -2.44585E+03       0.00000E+00      -8.40611E+01       0.00000E+00       3.50044E+05       0.00000E+00      -2.45437E+02       3.48160E+05       0.00000E+00      -1.43961E+05

This summary file was closed on 19-Feb-2019 at 10:38:23.

