
This summary information was generated by AeroDyn (v15.03.00, 27-Jul-2016) on 09-Apr-2019 at 17:49:04.

======  General Options  ============================================================================
            0  WakeMod        - Type of wake/induction model: steady
            2  AFAeroMod      - Type of blade airfoil aerodynamics model: Beddoes-Leishman unsteady model
            1  TwrPotent      - Type tower influence on wind based on potential flow around the tower: baseline potential flow
            F  TwrShadow      - Calculate tower influence on wind based on downstream tower shadow? No
            T  TwrAero        - Calculate tower aerodynamic loads? Yes
======  Beddoes-Leishman Unsteady Airfoil Aerodynamics Options  =====================================
            3  UAMod          - Unsteady Aero Model: Minemma/Pierce variant (changes in Cc and Cm)
            T  FLookup        - Use a lookup for f'? Yes
======  Outputs  ====================================================================================
            0  NBlOuts        - Number of blade nodes selected for output
            0  NTwOuts        - Number of tower nodes selected for output
               Requested Output Channels:
               Col   Parameter  Units
               ----  ---------  -----
                  0  Time       (s)       
