/*---------------------------------------------------------------------------*\
| =========                 |                                                 |
| \\      /  F ield         | OpenFOAM: The Open Source CFD Toolbox           |
|  \\    /   O peration     | Version:  2.4.x                                 |
|   \\  /    A nd           | Web:      www.OpenFOAM.org                      |
|    \\/     M anipulation  |                                                 |
\*---------------------------------------------------------------------------*/
Build  : 2.4.x-2b147f41daf9
Exec   : ABLSolver -parallel
Date   : Jan 28 2019
Time   : 18:10:15
Host   : "r065c01s03"
PID    : 27269
Case   : /marconi_scratch/userexternal/afriger1/enrico/example.cases2018/example.ABL.flatTerrain.neutral
nProcs : 16
Slaves : 
15
(
"r065c01s03.27270"
"r065c01s03.27271"
"r065c01s03.27272"
"r065c01s03.27273"
"r065c01s03.27274"
"r065c01s03.27275"
"r065c01s03.27276"
"r065c01s03.27277"
"r065c01s03.27278"
"r065c01s03.27279"
"r065c01s03.27280"
"r065c01s03.27281"
"r065c01s03.27282"
"r065c01s03.27283"
"r065c01s03.27284"
)

Pstream initialized with:
    floatTransfer      : 0
    nProcsSimpleSum    : 0
    commsType          : nonBlocking
    polling iterations : 0
sigFpe : Enabling floating point exception trapping (FOAM_SIGFPE).
fileModificationChecking : Monitoring run-time modified files using timeStampMaster
allowSystemOperations : Allowing user-supplied system call operations

// * * * * * * * * * * * * * * * * * * * * * * * * * * * * * * * * * * * * * //
Create time

Create mesh for time = 0


Total number of cell center height levels: 40

Reading g
Creating and reading potential temperature field, T...
Creating and reading modified pressure field, p_rgh...
Creating and reading velocity field, U...
Creating and calculating velocity flux field, phi...
Reading/calculating face flux field phi

Reading transport properties...
Selecting incompressible transport model Newtonian
Reading the atmospheric boundary layer properties...
Omega [0 0 -1 0 0 0 0] (0 5.46334695074e-05 4.79966757274e-05)
Defining background hydrostatic pressure to be rho_k * g * z
Pressure reference cell matrix row modification enabled
Creating turbulence model...
Selecting turbulence model type LESModel
Selecting LES turbulence model oneEqEddyABL
Selecting LES delta type smooth
Selecting LES delta type cubeRootVol
oneEqEddyABLCoeffs
{
    ce              0.93;
    ck              0.0673;
    TName           "T";
    kappatName      "kappat";
}

Creating the Coriolis force vector, fCoriolis...
Creating sponge layer viscosity field, spongeLayerViscosity...
Creating sponge layer force vector, fSponge...
Creating kinematic (Boussinesq) density field, rhok...
Creating the kinematic thermal conductivity field, kappat...
Reading and creating the wall shear stress field, Rwall...
Reading and creating the wall temperature flux field, qwall...
Creating and calculating the static pressure field, p...
Setting up the pressure reference cell information...
Creating and calculating the gravity potential field, gh and ghf...
Creating mean temperature field, Tmean...
Creating fluctuating temperature field, Tprime...
Creating mean velocity field, Umean...
Creating fluctuating velocity field, Uprime...
Creating mean SGS stress field, Rmean...
Creating mean SGS temperature flux field, qmean...
Creating mean SGS viscosity field, nuSGSmean...
Creating SGS temperature flux field, qSgs...
Creating SGS stress field, RdevSgs...
Creating SGS turbulent kinetic field, kSgs...
Creating the momentum source term, SourceU...
Creating the potential temperature source term, SourceT...
Courant Number mean: 0.0783558941814 max: 0.0848305129328
Continuity Report:
   -Local Cell Continuity Error:
       minimum: 0
       maximum: 0.0846792043116
       weighted mean: 0.00675872209233
   -Boundary Flux:
       lower - flux: 0	/ area: 25000000
       upper - flux: 0	/ area: 25000000
       total - flux: 0	/ area: 50000000
Creating divergence scheme blending factor field, UBlendingFactor...
Creating divergence scheme blending factor field, TBlendingFactor...

PIMPLE: Operating solver in PISO mode


Starting time loop

<U_1> = (8 1.42608769238e-17 0)	<U_s> = (8 3.78349795938e-17 0)	<dU/dn> = (1.60011495609e-14 -1.63709046319e-19 0)
DILUPBiCG:  Solving for k, Initial residual = 1, Final residual = 0.00446354982462, No Iterations 1
uStarMean = 0.723515604599	LMean = 1e+30	phiMMean = 1	Avg iterations = 0
UParallelMeanMag = 8	UParallelPMeanMag = 8.00184159239
RwMagMean = 0.523595333506	RwMeanMag = 0.523474830098	sqrt(RwMagMean) = 0.723598876109	sqrt(RwMeanMag) = 0.723515604599	uStarMean = 0.723515604599
Reading surface description:
    slice_horizontal_1
    slice_horizontal_2
    slice_horizontal_3
    slice_cross_stream
    slice_streamwise

Reading surface description:
    south

--> FOAM Warning : 
    From function findElements::findElements(const fvMesh&)
    in file probes/probes.C at line 111
    Did not find location (2500.001 500.001 1005.001) in any cell. Skipping location.
--> FOAM Warning : 
    From function findElements::findElements(const fvMesh&)
    in file probes/probes.C at line 111
    Did not find location (2500.001 500.001 1015.001) in any cell. Skipping location.
--> FOAM Warning : 
    From function findElements::findElements(const fvMesh&)
    in file probes/probes.C at line 111
    Did not find location (2500.001 500.001 1025.001) in any cell. Skipping location.
--> FOAM Warning : 
    From function findElements::findElements(const fvMesh&)
    in file probes/probes.C at line 111
    Did not find location (2500.001 500.001 1035.001) in any cell. Skipping location.
--> FOAM Warning : 
    From function findElements::findElements(const fvMesh&)
    in file probes/probes.C at line 111
    Did not find location (2500.001 500.001 1045.001) in any cell. Skipping location.
--> FOAM Warning : 
    From function findElements::findElements(const fvMesh&)
    in file probes/probes.C at line 111
    Did not find location (2500.001 500.001 1055.001) in any cell. Skipping location.
--> FOAM Warning : 
    From function findElements::findElements(const fvMesh&)
    in file probes/probes.C at line 111
    Did not find location (2500.001 500.001 1065.001) in any cell. Skipping location.
--> FOAM Warning : 
    From function findElements::findElements(const fvMesh&)
    in file probes/probes.C at line 111
    Did not find location (2500.001 500.001 1075.001) in any cell. Skipping location.
--> FOAM Warning : 
    From function findElements::findElements(const fvMesh&)
    in file probes/probes.C at line 111
    Did not find location (2500.001 500.001 1085.001) in any cell. Skipping location.
--> FOAM Warning : 
    From function findElements::findElements(const fvMesh&)
    in file probes/probes.C at line 111
    Did not find location (2500.001 500.001 1095.001) in any cell. Skipping location.
--> FOAM Warning : 
    From function findElements::findElements(const fvMesh&)
    in file probes/probes.C at line 111
    Did not find location (2500.001 500.001 1105.001) in any cell. Skipping location.
--> FOAM Warning : 
    From function findElements::findElements(const fvMesh&)
    in file probes/probes.C at line 111
    Did not find location (2500.001 500.001 1115.001) in any cell. Skipping location.
--> FOAM Warning : 
    From function findElements::findElements(const fvMesh&)
    in file probes/probes.C at line 111
    Did not find location (2500.001 500.001 1125.001) in any cell. Skipping location.
--> FOAM Warning : 
    From function findElements::findElements(const fvMesh&)
    in file probes/probes.C at line 111
    Did not find location (2500.001 500.001 1135.001) in any cell. Skipping location.
--> FOAM Warning : 
    From function findElements::findElements(const fvMesh&)
    in file probes/probes.C at line 111
    Did not find location (2500.001 500.001 1145.001) in any cell. Skipping location.
--> FOAM Warning : 
    From function findElements::findElements(const fvMesh&)
    in file probes/probes.C at line 111
    Did not find location (2500.001 500.001 1155.001) in any cell. Skipping location.
--> FOAM Warning : 
    From function findElements::findElements(const fvMesh&)
    in file probes/probes.C at line 111
    Did not find location (2500.001 500.001 1165.001) in any cell. Skipping location.
--> FOAM Warning : 
    From function findElements::findElements(const fvMesh&)
    in file probes/probes.C at line 111
    Did not find location (2500.001 500.001 1175.001) in any cell. Skipping location.
--> FOAM Warning : 
    From function findElements::findElements(const fvMesh&)
    in file probes/probes.C at line 111
    Did not find location (2500.001 500.001 1185.001) in any cell. Skipping location.
--> FOAM Warning : 
    From function findElements::findElements(const fvMesh&)
    in file probes/probes.C at line 111
    Did not find location (2500.001 500.001 1195.001) in any cell. Skipping location.
--> FOAM Warning : 
    From function findElements::findElements(const fvMesh&)
    in file probes/probes.C at line 111
    Did not find location (2500.001 500.001 1205.001) in any cell. Skipping location.
--> FOAM Warning : 
    From function findElements::findElements(const fvMesh&)
    in file probes/probes.C at line 111
    Did not find location (2500.001 500.001 1215.001) in any cell. Skipping location.
--> FOAM Warning : 
    From function findElements::findElements(const fvMesh&)
    in file probes/probes.C at line 111
    Did not find location (2500.001 500.001 1225.001) in any cell. Skipping location.
--> FOAM Warning : 
    From function findElements::findElements(const fvMesh&)
    in file probes/probes.C at line 111
    Did not find location (2500.001 500.001 1235.001) in any cell. Skipping location.
--> FOAM Warning : 
    From function findElements::findElements(const fvMesh&)
    in file probes/probes.C at line 111
    Did not find location (2500.001 500.001 1245.001) in any cell. Skipping location.
--> FOAM Warning : 
    From function findElements::findElements(const fvMesh&)
    in file probes/probes.C at line 111
    Did not find location (2500.001 500.001 1255.001) in any cell. Skipping location.
--> FOAM Warning : 
    From function findElements::findElements(const fvMesh&)
    in file probes/probes.C at line 111
    Did not find location (2500.001 500.001 1265.001) in any cell. Skipping location.
--> FOAM Warning : 
    From function findElements::findElements(const fvMesh&)
    in file probes/probes.C at line 111
    Did not find location (2500.001 500.001 1275.001) in any cell. Skipping location.
--> FOAM Warning : 
    From function findElements::findElements(const fvMesh&)
    in file probes/probes.C at line 111
    Did not find location (2500.001 500.001 1285.001) in any cell. Skipping location.
--> FOAM Warning : 
    From function findElements::findElements(const fvMesh&)
    in file probes/probes.C at line 111
    Did not find location (2500.001 500.001 1295.001) in any cell. Skipping location.
--> FOAM Warning : 
    From function findElements::findElements(const fvMesh&)
    in file probes/probes.C at line 111
    Did not find location (2500.001 500.001 1305.001) in any cell. Skipping location.
--> FOAM Warning : 
    From function findElements::findElements(const fvMesh&)
    in file probes/probes.C at line 111
    Did not find location (2500.001 500.001 1315.001) in any cell. Skipping location.
--> FOAM Warning : 
    From function findElements::findElements(const fvMesh&)
    in file probes/probes.C at line 111
    Did not find location (2500.001 500.001 1325.001) in any cell. Skipping location.
--> FOAM Warning : 
    From function findElements::findElements(const fvMesh&)
    in file probes/probes.C at line 111
    Did not find location (2500.001 500.001 1335.001) in any cell. Skipping location.
--> FOAM Warning : 
    From function findElements::findElements(const fvMesh&)
    in file probes/probes.C at line 111
    Did not find location (2500.001 500.001 1345.001) in any cell. Skipping location.
--> FOAM Warning : 
    From function findElements::findElements(const fvMesh&)
    in file probes/probes.C at line 111
    Did not find location (2500.001 500.001 1355.001) in any cell. Skipping location.
--> FOAM Warning : 
    From function findElements::findElements(const fvMesh&)
    in file probes/probes.C at line 111
    Did not find location (2500.001 500.001 1365.001) in any cell. Skipping location.
--> FOAM Warning : 
    From function findElements::findElements(const fvMesh&)
    in file probes/probes.C at line 111
    Did not find location (2500.001 500.001 1375.001) in any cell. Skipping location.
--> FOAM Warning : 
    From function findElements::findElements(const fvMesh&)
    in file probes/probes.C at line 111
    Did not find location (2500.001 500.001 1385.001) in any cell. Skipping location.
--> FOAM Warning : 
    From function findElements::findElements(const fvMesh&)
    in file probes/probes.C at line 111
    Did not find location (2500.001 500.001 1395.001) in any cell. Skipping location.
--> FOAM Warning : 
    From function findElements::findElements(const fvMesh&)
    in file probes/probes.C at line 111
    Did not find location (2500.001 500.001 1405.001) in any cell. Skipping location.
--> FOAM Warning : 
    From function findElements::findElements(const fvMesh&)
    in file probes/probes.C at line 111
    Did not find location (2500.001 500.001 1415.001) in any cell. Skipping location.
--> FOAM Warning : 
    From function findElements::findElements(const fvMesh&)
    in file probes/probes.C at line 111
    Did not find location (2500.001 500.001 1425.001) in any cell. Skipping location.
--> FOAM Warning : 
    From function findElements::findElements(const fvMesh&)
    in file probes/probes.C at line 111
    Did not find location (2500.001 500.001 1435.001) in any cell. Skipping location.
--> FOAM Warning : 
    From function findElements::findElements(const fvMesh&)
    in file probes/probes.C at line 111
    Did not find location (2500.001 500.001 1445.001) in any cell. Skipping location.
--> FOAM Warning : 
    From function findElements::findElements(const fvMesh&)
    in file probes/probes.C at line 111
    Did not find location (2500.001 500.001 1455.001) in any cell. Skipping location.
--> FOAM Warning : 
    From function findElements::findElements(const fvMesh&)
    in file probes/probes.C at line 111
    Did not find location (2500.001 500.001 1465.001) in any cell. Skipping location.
--> FOAM Warning : 
    From function findElements::findElements(const fvMesh&)
    in file probes/probes.C at line 111
    Did not find location (2500.001 500.001 1475.001) in any cell. Skipping location.
--> FOAM Warning : 
    From function findElements::findElements(const fvMesh&)
    in file probes/probes.C at line 111
    Did not find location (2500.001 500.001 1485.001) in any cell. Skipping location.
--> FOAM Warning : 
    From function findElements::findElements(const fvMesh&)
    in file probes/probes.C at line 111
    Did not find location (2500.001 500.001 1495.001) in any cell. Skipping location.
--> FOAM Warning : 
    From function findElements::findElements(const fvMesh&)
    in file probes/probes.C at line 111
    Did not find location (2500.001 500.001 1505.001) in any cell. Skipping location.
--> FOAM Warning : 
    From function findElements::findElements(const fvMesh&)
    in file probes/probes.C at line 111
    Did not find location (2500.001 500.001 1515.001) in any cell. Skipping location.
--> FOAM Warning : 
    From function findElements::findElements(const fvMesh&)
    in file probes/probes.C at line 111
    Did not find location (2500.001 500.001 1525.001) in any cell. Skipping location.
--> FOAM Warning : 
    From function findElements::findElements(const fvMesh&)
    in file probes/probes.C at line 111
    Did not find location (2500.001 500.001 1535.001) in any cell. Skipping location.
--> FOAM Warning : 
    From function findElements::findElements(const fvMesh&)
    in file probes/probes.C at line 111
    Did not find location (2500.001 500.001 1545.001) in any cell. Skipping location.
--> FOAM Warning : 
    From function findElements::findElements(const fvMesh&)
    in file probes/probes.C at line 111
    Did not find location (2500.001 500.001 1555.001) in any cell. Skipping location.
--> FOAM Warning : 
    From function findElements::findElements(const fvMesh&)
    in file probes/probes.C at line 111
    Did not find location (2500.001 500.001 1565.001) in any cell. Skipping location.
--> FOAM Warning : 
    From function findElements::findElements(const fvMesh&)
    in file probes/probes.C at line 111
    Did not find location (2500.001 500.001 1575.001) in any cell. Skipping location.
--> FOAM Warning : 
    From function findElements::findElements(const fvMesh&)
    in file probes/probes.C at line 111
    Did not find location (2500.001 500.001 1585.001) in any cell. Skipping location.
--> FOAM Warning : 
    From function findElements::findElements(const fvMesh&)
    in file probes/probes.C at line 111
    Did not find location (2500.001 500.001 1595.001) in any cell. Skipping location.
--> FOAM Warning : 
    From function findElements::findElements(const fvMesh&)
    in file probes/probes.C at line 111
    Did not find location (2500.001 500.001 1605.001) in any cell. Skipping location.
--> FOAM Warning : 
    From function findElements::findElements(const fvMesh&)
    in file probes/probes.C at line 111
    Did not find location (2500.001 500.001 1615.001) in any cell. Skipping location.
--> FOAM Warning : 
    From function findElements::findElements(const fvMesh&)
    in file probes/probes.C at line 111
    Did not find location (2500.001 500.001 1625.001) in any cell. Skipping location.
--> FOAM Warning : 
    From function findElements::findElements(const fvMesh&)
    in file probes/probes.C at line 111
    Did not find location (2500.001 500.001 1635.001) in any cell. Skipping location.
--> FOAM Warning : 
    From function findElements::findElements(const fvMesh&)
    in file probes/probes.C at line 111
    Did not find location (2500.001 500.001 1645.001) in any cell. Skipping location.
--> FOAM Warning : 
    From function findElements::findElements(const fvMesh&)
    in file probes/probes.C at line 111
    Did not find location (2500.001 500.001 1655.001) in any cell. Skipping location.
--> FOAM Warning : 
    From function findElements::findElements(const fvMesh&)
    in file probes/probes.C at line 111
    Did not find location (2500.001 500.001 1665.001) in any cell. Skipping location.
--> FOAM Warning : 
    From function findElements::findElements(const fvMesh&)
    in file probes/probes.C at line 111
    Did not find location (2500.001 500.001 1675.001) in any cell. Skipping location.
--> FOAM Warning : 
    From function findElements::findElements(const fvMesh&)
    in file probes/probes.C at line 111
    Did not find location (2500.001 500.001 1685.001) in any cell. Skipping location.
--> FOAM Warning : 
    From function findElements::findElements(const fvMesh&)
    in file probes/probes.C at line 111
    Did not find location (2500.001 500.001 1695.001) in any cell. Skipping location.
--> FOAM Warning : 
    From function findElements::findElements(const fvMesh&)
    in file probes/probes.C at line 111
    Did not find location (2500.001 500.001 1705.001) in any cell. Skipping location.
--> FOAM Warning : 
    From function findElements::findElements(const fvMesh&)
    in file probes/probes.C at line 111
    Did not find location (2500.001 500.001 1715.001) in any cell. Skipping location.
--> FOAM Warning : 
    From function findElements::findElements(const fvMesh&)
    in file probes/probes.C at line 111
    Did not find location (2500.001 500.001 1725.001) in any cell. Skipping location.
--> FOAM Warning : 
    From function findElements::findElements(const fvMesh&)
    in file probes/probes.C at line 111
    Did not find location (2500.001 500.001 1735.001) in any cell. Skipping location.
--> FOAM Warning : 
    From function findElements::findElements(const fvMesh&)
    in file probes/probes.C at line 111
    Did not find location (2500.001 500.001 1745.001) in any cell. Skipping location.
--> FOAM Warning : 
    From function findElements::findElements(const fvMesh&)
    in file probes/probes.C at line 111
    Did not find location (2500.001 500.001 1755.001) in any cell. Skipping location.
--> FOAM Warning : 
    From function findElements::findElements(const fvMesh&)
    in file probes/probes.C at line 111
    Did not find location (2500.001 500.001 1765.001) in any cell. Skipping location.
--> FOAM Warning : 
    From function findElements::findElements(const fvMesh&)
    in file probes/probes.C at line 111
    Did not find location (2500.001 500.001 1775.001) in any cell. Skipping location.
--> FOAM Warning : 
    From function findElements::findElements(const fvMesh&)
    in file probes/probes.C at line 111
    Did not find location (2500.001 500.001 1785.001) in any cell. Skipping location.
--> FOAM Warning : 
    From function findElements::findElements(const fvMesh&)
    in file probes/probes.C at line 111
    Did not find location (2500.001 500.001 1795.001) in any cell. Skipping location.
--> FOAM Warning : 
    From function findElements::findElements(const fvMesh&)
    in file probes/probes.C at line 111
    Did not find location (2500.001 500.001 1805.001) in any cell. Skipping location.
--> FOAM Warning : 
    From function findElements::findElements(const fvMesh&)
    in file probes/probes.C at line 111
    Did not find location (2500.001 500.001 1815.001) in any cell. Skipping location.
--> FOAM Warning : 
    From function findElements::findElements(const fvMesh&)
    in file probes/probes.C at line 111
    Did not find location (2500.001 500.001 1825.001) in any cell. Skipping location.
--> FOAM Warning : 
    From function findElements::findElements(const fvMesh&)
    in file probes/probes.C at line 111
    Did not find location (2500.001 500.001 1835.001) in any cell. Skipping location.
--> FOAM Warning : 
    From function findElements::findElements(const fvMesh&)
    in file probes/probes.C at line 111
    Did not find location (2500.001 500.001 1845.001) in any cell. Skipping location.
--> FOAM Warning : 
    From function findElements::findElements(const fvMesh&)
    in file probes/probes.C at line 111
    Did not find location (2500.001 500.001 1855.001) in any cell. Skipping location.
--> FOAM Warning : 
    From function findElements::findElements(const fvMesh&)
    in file probes/probes.C at line 111
    Did not find location (2500.001 500.001 1865.001) in any cell. Skipping location.
--> FOAM Warning : 
    From function findElements::findElements(const fvMesh&)
    in file probes/probes.C at line 111
    Did not find location (2500.001 500.001 1875.001) in any cell. Skipping location.
--> FOAM Warning : 
    From function findElements::findElements(const fvMesh&)
    in file probes/probes.C at line 111
    Did not find location (2500.001 500.001 1885.001) in any cell. Skipping location.
--> FOAM Warning : 
    From function findElements::findElements(const fvMesh&)
    in file probes/probes.C at line 111
    Did not find location (2500.001 500.001 1895.001) in any cell. Skipping location.
--> FOAM Warning : 
    From function findElements::findElements(const fvMesh&)
    in file probes/probes.C at line 111
    Did not find location (2500.001 500.001 1905.001) in any cell. Skipping location.
--> FOAM Warning : 
    From function findElements::findElements(const fvMesh&)
    in file probes/probes.C at line 111
    Did not find location (2500.001 500.001 1915.001) in any cell. Skipping location.
--> FOAM Warning : 
    From function findElements::findElements(const fvMesh&)
    in file probes/probes.C at line 111
    Did not find location (2500.001 500.001 1925.001) in any cell. Skipping location.
--> FOAM Warning : 
    From function findElements::findElements(const fvMesh&)
    in file probes/probes.C at line 111
    Did not find location (2500.001 500.001 1935.001) in any cell. Skipping location.
--> FOAM Warning : 
    From function findElements::findElements(const fvMesh&)
    in file probes/probes.C at line 111
    Did not find location (2500.001 500.001 1945.001) in any cell. Skipping location.
--> FOAM Warning : 
    From function findElements::findElements(const fvMesh&)
    in file probes/probes.C at line 111
    Did not find location (2500.001 500.001 1955.001) in any cell. Skipping location.
--> FOAM Warning : 
    From function findElements::findElements(const fvMesh&)
    in file probes/probes.C at line 111
    Did not find location (2500.001 500.001 1965.001) in any cell. Skipping location.
--> FOAM Warning : 
    From function findElements::findElements(const fvMesh&)
    in file probes/probes.C at line 111
    Did not find location (2500.001 500.001 1975.001) in any cell. Skipping location.
--> FOAM Warning : 
    From function findElements::findElements(const fvMesh&)
    in file probes/probes.C at line 111
    Did not find location (2500.001 500.001 1985.001) in any cell. Skipping location.
--> FOAM Warning : 
    From function findElements::findElements(const fvMesh&)
    in file probes/probes.C at line 111
    Did not find location (2500.001 500.001 1995.001) in any cell. Skipping location.
Time = 0.5	Time Step = 1
Courant Number mean: 0.0800458221853 max: 0.0848305129328
PIMPLE: iteration 1
   Predictor...
<U_1> = (8 1.42608769238e-17 0)	<U_s> = (8 3.78349795938e-17 0)	<dU/dn> = (1.60011495609e-14 -1.63709046319e-19 0)
DILUPBiCG:  Solving for Ux, Initial residual = 0.645882148166, Final residual = 6.69451239692e-08, No Iterations 4
DILUPBiCG:  Solving for Uy, Initial residual = 0.6287064351, Final residual = 1.50810614965e-07, No Iterations 4
DILUPBiCG:  Solving for Uz, Initial residual = 1, Final residual = 1.56460139218e-07, No Iterations 3
DILUPBiCG:  Solving for k, Initial residual = 0.647077249852, Final residual = 4.58785303034e-08, No Iterations 3
uStarMean = 0.722569389021	LMean = 1e+30	phiMMean = 1	Avg iterations = 0
UParallelMeanMag = 7.98953757932	UParallelPMeanMag = 7.99136893496
RwMagMean = 0.522226198804	RwMeanMag = 0.52210652195	sqrt(RwMagMean) = 0.722652197675	sqrt(RwMeanMag) = 0.722569389021	uStarMean = 0.722569389021
DILUPBiCG:  Solving for T, Initial residual = 2.8727989806e-06, Final residual = 1.3006223736e-08, No Iterations 1
   Corrector Step 0...
GAMGPCG:  Solving for p_rgh, Initial residual = 1, Final residual = 0.00602466253645, No Iterations 3
<U_1> = (7.99476525418 -0.000383973413032 -0.000120869133178)	<U_s> = (7.98430981604 -0.000383973816146 0)	<dU/dn> = (0.000418217525299 1.61245334584e-11 -9.6695306542e-06)
DILUPBiCG:  Solving for k, Initial residual = 0.00337496263801, Final residual = 1.1266438119e-09, No Iterations 3
uStarMean = 0.722569385857	LMean = 1e+30	phiMMean = 1	Avg iterations = 0
UParallelMeanMag = 7.98953754434	UParallelPMeanMag = 7.99136899489
RwMagMean = 0.522226200433	RwMeanMag = 0.522106517377	sqrt(RwMagMean) = 0.722652198802	sqrt(RwMeanMag) = 0.722569385857	uStarMean = 0.722569385857
DILUPBiCG:  Solving for T, Initial residual = 0.000207505809673, Final residual = 7.23181527417e-07, No Iterations 1
   Corrector Step 1...
GAMGPCG:  Solving for p_rgh, Initial residual = 0.0161644238156, Final residual = 0.000145834001335, No Iterations 2
<U_1> = (7.99476525415 -0.000383973412109 5.44653771723e-06)	<U_s> = (7.98430981601 -0.000383973814848 0)	<dU/dn> = (0.000418217525354 1.610958936e-11 4.35723017379e-07)
DILUPBiCG:  Solving for k, Initial residual = 0.000460581041156, Final residual = 2.36590251814e-07, No Iterations 2
uStarMean = 0.722569385854	LMean = 1e+30	phiMMean = 1	Avg iterations = 0
UParallelMeanMag = 7.98953754431	UParallelPMeanMag = 7.99136889976
RwMagMean = 0.522226194215	RwMeanMag = 0.522106517374	sqrt(RwMagMean) = 0.7226521945	sqrt(RwMeanMag) = 0.722569385854	uStarMean = 0.722569385854
DILUPBiCG:  Solving for T, Initial residual = 0.000210451727081, Final residual = 9.24801531314e-07, No Iterations 1
   Corrector Step 2...
GAMGPCG:  Solving for p_rgh, Initial residual = 0.00734182563218, Final residual = 3.36914738864e-07, No Iterations 4
<U_1> = (7.99476525415 -0.000383973412528 5.11232949526e-09)	<U_s> = (7.98430981602 -0.000383973815327 0)	<dU/dn> = (0.000418217525334 1.61119445602e-11 4.08986359621e-10)
DILUPBiCG:  Solving for k, Initial residual = 0.000350517332283, Final residual = 1.93600440922e-07, No Iterations 2
uStarMean = 0.722569385854	LMean = 1e+30	phiMMean = 1	Avg iterations = 0
UParallelMeanMag = 7.98953754431	UParallelPMeanMag = 7.99136889915
RwMagMean = 0.522226194175	RwMeanMag = 0.522106517374	sqrt(RwMagMean) = 0.722652194472	sqrt(RwMeanMag) = 0.722569385854	uStarMean = 0.722569385854
DILUPBiCG:  Solving for T, Initial residual = 1.01409513098e-05, Final residual = 9.0229646534e-08, No Iterations 1
<U> at 99.27: (8 -0.00038397340574 1.6195016919e-08) m/s
<U>_desired: (8 0 0) m/s
<U>_error: (-1.87139193031e-12 -0.00038397340574 1.6195016919e-08) m/s
<U_1> = (7.99476525415 -0.00011520978232 5.11232949526e-09)	<U_s> = (7.98430981602 -0.000115028192923 0)	<dU/dn> = (0.000418217525334 -7.26357589304e-09 4.08986359621e-10)
Continuity Report:
   -Local Cell Continuity Error:
       minimum: 1.77290579439e-15
       maximum: 3.82853476767e-07
       weighted mean: 8.47888719994e-10
   -Boundary Flux:
       lower - flux: 0	/ area: 25000000
       upper - flux: 7.63122898206e-12	/ area: 25000000
       total - flux: 7.63122898206e-12	/ area: 50000000
ExecutionTime = 27.08 s  ClockTime = 28 s

Time = 1	Time Step = 2
Courant Number mean: 0.0800443579517 max: 0.0847165519143
PIMPLE: iteration 1
   Predictor...
<U_1> = (7.99476525415 -0.00011520978232 5.11232949526e-09)	<U_s> = (7.98430981602 -0.000115028192923 0)	<dU/dn> = (0.000418217525334 -7.26357589304e-09 4.08986359621e-10)
DILUPBiCG:  Solving for Ux, Initial residual = 0.0276725287645, Final residual = 4.68465305057e-09, No Iterations 3
DILUPBiCG:  Solving for Uy, Initial residual = 0.0388247905567, Final residual = 6.57118870462e-09, No Iterations 3
DILUPBiCG:  Solving for Uz, Initial residual = 0.393381347255, Final residual = 7.33946862304e-08, No Iterations 3
DILUPBiCG:  Solving for k, Initial residual = 0.511374078012, Final residual = 3.70649032906e-08, No Iterations 3
uStarMean = 0.721625234282	LMean = 1e+30	phiMMean = 1	Avg iterations = 0
UParallelMeanMag = 7.97909794559	UParallelPMeanMag = 7.98092276766
RwMagMean = 0.520862072827	RwMeanMag = 0.520742978753	sqrt(RwMagMean) = 0.721707747517	sqrt(RwMeanMag) = 0.721625234282	uStarMean = 0.721625234282
DILUPBiCG:  Solving for T, Initial residual = 2.53744126481e-06, Final residual = 7.8666725591e-09, No Iterations 1
   Corrector Step 0...
GAMGPCG:  Solving for p_rgh, Initial residual = 0.000313060874018, Final residual = 2.3127963874e-06, No Iterations 1
<U_1> = (7.98953962882 -0.000229783395106 1.32150506329e-08)	<U_s> = (7.96865625577 -0.00022887359074 0)	<dU/dn> = (0.000835334921967 -3.63921746344e-08 1.05720405063e-09)
DILUPBiCG:  Solving for k, Initial residual = 0.000611842142933, Final residual = 1.16261226166e-07, No Iterations 2
uStarMean = 0.721625234282	LMean = 1e+30	phiMMean = 1	Avg iterations = 0
UParallelMeanMag = 7.97909794559	UParallelPMeanMag = 7.9809227663
RwMagMean = 0.520862072738	RwMeanMag = 0.520742978753	sqrt(RwMagMean) = 0.721707747456	sqrt(RwMeanMag) = 0.721625234282	uStarMean = 0.721625234282
DILUPBiCG:  Solving for T, Initial residual = 1.04710060225e-07, Final residual = 1.04710060225e-07, No Iterations 0
   Corrector Step 1...
GAMGPCG:  Solving for p_rgh, Initial residual = 4.91161705669e-06, Final residual = 7.27099298582e-07, No Iterations 1
<U_1> = (7.98953962882 -0.000229783395073 -9.53319872595e-09)	<U_s> = (7.96865625578 -0.000228873590698 0)	<dU/dn> = (0.00083533492181 -3.63921749905e-08 -7.62655898076e-10)
DILUPBiCG:  Solving for k, Initial residual = 5.25886545718e-05, Final residual = 3.82618639663e-07, No Iterations 1
uStarMean = 0.721625234282	LMean = 1e+30	phiMMean = 1	Avg iterations = 0
UParallelMeanMag = 7.97909794559	UParallelPMeanMag = 7.98092276633
RwMagMean = 0.52086207274	RwMeanMag = 0.520742978753	sqrt(RwMagMean) = 0.721707747457	sqrt(RwMeanMag) = 0.721625234282	uStarMean = 0.721625234282
DILUPBiCG:  Solving for T, Initial residual = 4.33586493741e-08, Final residual = 4.33586493741e-08, No Iterations 0
   Corrector Step 2...
GAMGPCG:  Solving for p_rgh, Initial residual = 7.27522587033e-07, Final residual = 7.27522587033e-07, No Iterations 0
<U_1> = (7.98953962882 -0.000229783395073 -9.56737453019e-09)	<U_s> = (7.96865625578 -0.000228873590698 0)	<dU/dn> = (0.00083533492181 -3.63921750011e-08 -7.65389962415e-10)
DILUPBiCG:  Solving for k, Initial residual = 5.18775260663e-07, Final residual = 5.18775260663e-07, No Iterations 0
uStarMean = 0.721625234282	LMean = 1e+30	phiMMean = 1	Avg iterations = 0
UParallelMeanMag = 7.97909794559	UParallelPMeanMag = 7.98092276633
RwMagMean = 0.52086207274	RwMeanMag = 0.520742978753	sqrt(RwMagMean) = 0.721707747457	sqrt(RwMeanMag) = 0.721625234282	uStarMean = 0.721625234282
DILUPBiCG:  Solving for T, Initial residual = 4.32318894145e-08, Final residual = 4.32318894145e-08, No Iterations 0
<U> at 99.27: (7.99999999596 -0.00023024014122 -3.37424700376e-08) m/s
<U>_desired: (8 0 0) m/s
<U>_error: (-4.03866540211e-09 -0.00023024014122 -3.37424700376e-08) m/s
<U_1> = (7.98953963165 -6.86222301519e-05 -9.56737453019e-09)	<U_s> = (7.9686562586 -6.76393565696e-05 0)	<dU/dn> = (0.000835334921758 -3.93149432956e-08 -7.65389962415e-10)
Continuity Report:
   -Local Cell Continuity Error:
       minimum: 1.60071067512e-15
       maximum: 1.62868361999e-06
       weighted mean: 1.22315109787e-09
   -Boundary Flux:
       lower - flux: 0	/ area: 25000000
       upper - flux: 0	/ area: 25000000
       total - flux: 0	/ area: 50000000
ExecutionTime = 28.21 s  ClockTime = 29 s

Time = 1.5	Time Step = 3
Courant Number mean: 0.0800412867592 max: 0.0845995118807
PIMPLE: iteration 1
   Predictor...
<U_1> = (7.98953963165 -6.86222301519e-05 -9.56737453019e-09)	<U_s> = (7.9686562586 -6.76393565696e-05 0)	<dU/dn> = (0.000835334921758 -3.93149432956e-08 -7.65389962415e-10)
DILUPBiCG:  Solving for Ux, Initial residual = 0.0259157240108, Final residual = 4.3311473207e-09, No Iterations 3
DILUPBiCG:  Solving for Uy, Initial residual = 0.0373688747257, Final residual = 6.25731595702e-09, No Iterations 3
DILUPBiCG:  Solving for Uz, Initial residual = 0.176760552454, Final residual = 3.10147134867e-08, No Iterations 3
DILUPBiCG:  Solving for k, Initial residual = 0.393459735138, Final residual = 2.85945056481e-08, No Iterations 3
uStarMean = 0.72068383124	LMean = 1e+30	phiMMean = 1	Avg iterations = 0
UParallelMeanMag = 7.9686887377	UParallelPMeanMag = 7.97050828421
RwMagMean = 0.519503779467	RwMeanMag = 0.51938518461	sqrt(RwMagMean) = 0.720766105937	sqrt(RwMeanMag) = 0.72068383124	uStarMean = 0.72068383124
DILUPBiCG:  Solving for T, Initial residual = 2.73919150854e-06, Final residual = 8.26534209092e-09, No Iterations 1
   Corrector Step 0...
GAMGPCG:  Solving for p_rgh, Initial residual = 0.000224244034427, Final residual = 2.09272389623e-06, No Iterations 1
<U_1> = (7.98432614742 3.21774549101e-05 -1.17679152456e-08)	<U_s> = (7.95305132784 3.42922777299e-05 0)	<dU/dn> = (0.00125099278343 -8.45929127909e-08 -9.4143321965e-10)
DILUPBiCG:  Solving for k, Initial residual = 0.000485707293443, Final residual = 9.30964601894e-08, No Iterations 2
uStarMean = 0.72068383124	LMean = 1e+30	phiMMean = 1	Avg iterations = 0
UParallelMeanMag = 7.9686887377	UParallelPMeanMag = 7.97050828285
RwMagMean = 0.519503779378	RwMeanMag = 0.51938518461	sqrt(RwMagMean) = 0.720766105875	sqrt(RwMeanMag) = 0.72068383124	uStarMean = 0.72068383124
DILUPBiCG:  Solving for T, Initial residual = 1.07182170438e-07, Final residual = 1.07182170438e-07, No Iterations 0
   Corrector Step 1...
GAMGPCG:  Solving for p_rgh, Initial residual = 2.19943340772e-06, Final residual = 4.75138337093e-07, No Iterations 1
<U_1> = (7.98432614743 3.21774549344e-05 -1.1635306835e-08)	<U_s> = (7.95305132785 3.42922777524e-05 0)	<dU/dn> = (0.00125099278312 -8.4592912722e-08 -9.30824546797e-10)
DILUPBiCG:  Solving for k, Initial residual = 4.0622013346e-05, Final residual = 3.83515377012e-07, No Iterations 1
uStarMean = 0.72068383124	LMean = 1e+30	phiMMean = 1	Avg iterations = 0
UParallelMeanMag = 7.96868873771	UParallelPMeanMag = 7.97050828285
RwMagMean = 0.519503779379	RwMeanMag = 0.519385184611	sqrt(RwMagMean) = 0.720766105875	sqrt(RwMeanMag) = 0.72068383124	uStarMean = 0.72068383124
DILUPBiCG:  Solving for T, Initial residual = 4.20588526222e-08, Final residual = 4.20588526222e-08, No Iterations 0
   Corrector Step 2...
GAMGPCG:  Solving for p_rgh, Initial residual = 4.76497463686e-07, Final residual = 4.76497463686e-07, No Iterations 0
<U_1> = (7.98432614743 3.21774549343e-05 -1.16357945163e-08)	<U_s> = (7.95305132785 3.42922777527e-05 0)	<dU/dn> = (0.00125099278311 -8.45929127347e-08 -9.30863561307e-10)
DILUPBiCG:  Solving for k, Initial residual = 4.87495440694e-07, Final residual = 4.87495440694e-07, No Iterations 0
uStarMean = 0.72068383124	LMean = 1e+30	phiMMean = 1	Avg iterations = 0
UParallelMeanMag = 7.96868873771	UParallelPMeanMag = 7.97050828285
RwMagMean = 0.519503779379	RwMeanMag = 0.519385184611	sqrt(RwMagMean) = 0.720766105875	sqrt(RwMeanMag) = 0.72068383124	uStarMean = 0.72068383124
DILUPBiCG:  Solving for T, Initial residual = 4.20055112699e-08, Final residual = 4.20055112699e-08, No Iterations 0
<U> at 99.27: (7.9999999999 3.11152652219e-05 -4.38126048402e-08) m/s
<U>_desired: (8 0 0) m/s
<U>_error: (-9.85833636946e-11 3.11152652219e-05 -4.38126048402e-08) m/s
<U_1> = (7.98432614749 1.0397668032e-05 -1.16357945163e-08)	<U_s> = (7.95305132792 1.25025799231e-05 0)	<dU/dn> = (0.00125099278311 -8.41964756452e-08 -9.30863561307e-10)
Continuity Report:
   -Local Cell Continuity Error:
       minimum: 1.22441163042e-14
       maximum: 1.44993934737e-06
       weighted mean: 8.00966127925e-10
   -Boundary Flux:
       lower - flux: 0	/ area: 25000000
       upper - flux: 0	/ area: 25000000
       total - flux: 0	/ area: 50000000
ExecutionTime = 29.31 s  ClockTime = 30 s

Time = 2	Time Step = 4
Courant Number mean: 0.0800382132384 max: 0.0844886775438
PIMPLE: iteration 1
   Predictor...
<U_1> = (7.98432614749 1.0397668032e-05 -1.16357945163e-08)	<U_s> = (7.95305132792 1.25025799231e-05 0)	<dU/dn> = (0.00125099278311 -8.41964756452e-08 -9.30863561307e-10)
DILUPBiCG:  Solving for Ux, Initial residual = 0.0246128368828, Final residual = 4.09060304196e-09, No Iterations 3
DILUPBiCG:  Solving for Uy, Initial residual = 0.0362098309821, Final residual = 6.04933872235e-09, No Iterations 3
DILUPBiCG:  Solving for Uz, Initial residual = 0.133106966615, Final residual = 2.2880343164e-08, No Iterations 3
DILUPBiCG:  Solving for k, Initial residual = 0.314790829603, Final residual = 2.28284927349e-08, No Iterations 3
uStarMean = 0.719745390138	LMean = 1e+30	phiMMean = 1	Avg iterations = 0
UParallelMeanMag = 7.95831228035	UParallelPMeanMag = 7.96012698802
RwMagMean = 0.518151552077	RwMeanMag = 0.518033426625	sqrt(RwMagMean) = 0.719827446043	sqrt(RwMeanMag) = 0.719745390138	uStarMean = 0.719745390138
DILUPBiCG:  Solving for T, Initial residual = 2.78563121636e-06, Final residual = 8.27863129358e-09, No Iterations 1
   Corrector Step 0...
GAMGPCG:  Solving for p_rgh, Initial residual = 0.000229415390064, Final residual = 2.15769921846e-06, No Iterations 1
<U_1> = (7.97912576963 0.000100256702654 3.49033299594e-09)	<U_s> = (7.93749878976 0.0001037029193 0)	<dU/dn> = (0.00166507919483 -1.37848665838e-07 2.79226639675e-10)
DILUPBiCG:  Solving for k, Initial residual = 0.000405625415222, Final residual = 7.82004754394e-08, No Iterations 2
uStarMean = 0.719745390138	LMean = 1e+30	phiMMean = 1	Avg iterations = 0
UParallelMeanMag = 7.95831228035	UParallelPMeanMag = 7.96012698668
RwMagMean = 0.518151551989	RwMeanMag = 0.518033426625	sqrt(RwMagMean) = 0.719827445982	sqrt(RwMeanMag) = 0.719745390138	uStarMean = 0.719745390138
DILUPBiCG:  Solving for T, Initial residual = 1.23623752949e-07, Final residual = 1.23623752949e-07, No Iterations 0
   Corrector Step 1...
GAMGPCG:  Solving for p_rgh, Initial residual = 2.25354479675e-06, Final residual = 4.79774451564e-07, No Iterations 1
<U_1> = (7.97912576963 0.000100256702665 -7.43601012209e-09)	<U_s> = (7.93749878977 0.00010370291931 0)	<dU/dn> = (0.00166507919437 -1.37848665811e-07 -5.94880809767e-10)
DILUPBiCG:  Solving for k, Initial residual = 3.35734265316e-05, Final residual = 3.9640259302e-07, No Iterations 1
uStarMean = 0.719745390139	LMean = 1e+30	phiMMean = 1	Avg iterations = 0
UParallelMeanMag = 7.95831228036	UParallelPMeanMag = 7.96012698668
RwMagMean = 0.51815155199	RwMeanMag = 0.518033426626	sqrt(RwMagMean) = 0.719827445982	sqrt(RwMeanMag) = 0.719745390139	uStarMean = 0.719745390139
DILUPBiCG:  Solving for T, Initial residual = 1.93169464997e-08, Final residual = 1.93169464997e-08, No Iterations 0
   Corrector Step 2...
GAMGPCG:  Solving for p_rgh, Initial residual = 4.80553793036e-07, Final residual = 4.80553793036e-07, No Iterations 0
<U_1> = (7.97912576963 0.000100256702664 -7.45204076438e-09)	<U_s> = (7.93749878977 0.00010370291931 0)	<dU/dn> = (0.00166507919437 -1.37848665808e-07 -5.9616326115e-10)
DILUPBiCG:  Solving for k, Initial residual = 4.82123542831e-07, Final residual = 4.82123542831e-07, No Iterations 0
uStarMean = 0.719745390139	LMean = 1e+30	phiMMean = 1	Avg iterations = 0
UParallelMeanMag = 7.95831228036	UParallelPMeanMag = 7.96012698668
RwMagMean = 0.51815155199	RwMeanMag = 0.518033426626	sqrt(RwMagMean) = 0.719827445982	sqrt(RwMeanMag) = 0.719745390139	uStarMean = 0.719745390139
DILUPBiCG:  Solving for T, Initial residual = 1.92261702332e-08, Final residual = 1.92261702332e-08, No Iterations 0
<U> at 99.27: (8.0000000047 9.85246905463e-05 -3.45672946863e-08) m/s
<U>_desired: (8 0 0) m/s
<U>_error: (4.69809435799e-09 9.85246905463e-05 -3.45672946863e-08) m/s
<U_1> = (7.97912576635 3.12921450942e-05 -7.45204076438e-09)	<U_s> = (7.93749878648 3.47068683485e-05 0)	<dU/dn> = (0.00166507919443 -1.36588930171e-07 -5.9616326115e-10)
Continuity Report:
   -Local Cell Continuity Error:
       minimum: 5.47617418079e-15
       maximum: 3.97534613847e-07
       weighted mean: 8.07629046088e-10
   -Boundary Flux:
       lower - flux: 0	/ area: 25000000
       upper - flux: 0	/ area: 25000000
       total - flux: 0	/ area: 50000000
ExecutionTime = 30.42 s  ClockTime = 31 s

Time = 2.5	Time Step = 5
Courant Number mean: 0.0800358094112 max: 0.0843747026586
PIMPLE: iteration 1
   Predictor...
<U_1> = (7.97912576635 3.12921450942e-05 -7.45204076438e-09)	<U_s> = (7.93749878648 3.47068683485e-05 0)	<dU/dn> = (0.00166507919443 -1.36588930171e-07 -5.9616326115e-10)
DILUPBiCG:  Solving for Ux, Initial residual = 0.0233848875383, Final residual = 3.86867174457e-09, No Iterations 3
DILUPBiCG:  Solving for Uy, Initial residual = 0.0274809046839, Final residual = 5.18806418835e-09, No Iterations 3
DILUPBiCG:  Solving for Uz, Initial residual = 0.107738841665, Final residual = 1.87262676386e-08, No Iterations 3
DILUPBiCG:  Solving for k, Initial residual = 0.263455793181, Final residual = 1.90381687989e-08, No Iterations 3
uStarMean = 0.71880996868	LMean = 1e+30	phiMMean = 1	Avg iterations = 0
UParallelMeanMag = 7.94796921157	UParallelPMeanMag = 7.94977924202
RwMagMean = 0.516805438943	RwMeanMag = 0.516687771074	sqrt(RwMagMean) = 0.7188918131	sqrt(RwMeanMag) = 0.71880996868	uStarMean = 0.71880996868
DILUPBiCG:  Solving for T, Initial residual = 2.78715493592e-06, Final residual = 8.28338143355e-09, No Iterations 1
   Corrector Step 0...
GAMGPCG:  Solving for p_rgh, Initial residual = 0.00022969790929, Final residual = 2.19486889895e-06, No Iterations 1
<U_1> = (7.9739387718 3.28716431742e-05 3.53346234137e-09)	<U_s> = (7.92199965118 3.79599928461e-05 0)	<dU/dn> = (0.00207756482453 -2.03533986875e-07 2.82676987309e-10)
DILUPBiCG:  Solving for k, Initial residual = 0.000349100213363, Final residual = 6.76464419073e-08, No Iterations 2
uStarMean = 0.71880996868	LMean = 1e+30	phiMMean = 1	Avg iterations = 0
UParallelMeanMag = 7.94796921157	UParallelPMeanMag = 7.94977924066
RwMagMean = 0.516805438855	RwMeanMag = 0.516687771074	sqrt(RwMagMean) = 0.718891813039	sqrt(RwMeanMag) = 0.71880996868	uStarMean = 0.71880996868
DILUPBiCG:  Solving for T, Initial residual = 1.23573678275e-07, Final residual = 1.23573678275e-07, No Iterations 0
   Corrector Step 1...
GAMGPCG:  Solving for p_rgh, Initial residual = 2.28753010164e-06, Final residual = 4.87943079195e-07, No Iterations 1
<U_1> = (7.9739387718 3.28716431802e-05 -8.54262702871e-09)	<U_s> = (7.9219996512 3.79599928485e-05 0)	<dU/dn> = (0.00207756482392 -2.03533986735e-07 -6.83410162296e-10)
DILUPBiCG:  Solving for k, Initial residual = 2.87761749564e-05, Final residual = 4.0918939655e-07, No Iterations 1
uStarMean = 0.718809968681	LMean = 1e+30	phiMMean = 1	Avg iterations = 0
UParallelMeanMag = 7.94796921158	UParallelPMeanMag = 7.94977924066
RwMagMean = 0.516805438855	RwMeanMag = 0.516687771075	sqrt(RwMagMean) = 0.718891813039	sqrt(RwMeanMag) = 0.718809968681	uStarMean = 0.718809968681
DILUPBiCG:  Solving for T, Initial residual = 1.88627503501e-08, Final residual = 1.88627503501e-08, No Iterations 0
   Corrector Step 2...
GAMGPCG:  Solving for p_rgh, Initial residual = 4.88367020012e-07, Final residual = 4.88367020012e-07, No Iterations 0
<U_1> = (7.9739387718 3.28716431802e-05 -8.56002964993e-09)	<U_s> = (7.9219996512 3.79599928486e-05 0)	<dU/dn> = (0.00207756482392 -2.03533986734e-07 -6.84802371994e-10)
DILUPBiCG:  Solving for k, Initial residual = 4.82493930696e-07, Final residual = 4.82493930696e-07, No Iterations 0
uStarMean = 0.718809968681	LMean = 1e+30	phiMMean = 1	Avg iterations = 0
UParallelMeanMag = 7.94796921158	UParallelPMeanMag = 7.94977924066
RwMagMean = 0.516805438855	RwMeanMag = 0.516687771075	sqrt(RwMagMean) = 0.718891813039	sqrt(RwMeanMag) = 0.718809968681	uStarMean = 0.718809968681
DILUPBiCG:  Solving for T, Initial residual = 1.88395701906e-08, Final residual = 1.88395701906e-08, No Iterations 0
<U> at 99.27: (8.0000000034 3.03125192201e-05 -3.83093571763e-08) m/s
<U>_desired: (8 0 0) m/s
<U>_error: (3.39683303707e-09 3.03125192201e-05 -3.83093571763e-08) m/s
<U_1> = (7.97393876942 1.16536821034e-05 -8.56002964993e-09)	<U_s> = (7.92199964882 1.67323092939e-05 0)	<dU/dn> = (0.00207756482396 -2.03145087618e-07 -6.84802371994e-10)
Continuity Report:
   -Local Cell Continuity Error:
       minimum: 1.31131772099e-16
       maximum: 5.24546455708e-08
       weighted mean: 8.20600899914e-10
   -Boundary Flux:
       lower - flux: 0	/ area: 25000000
       upper - flux: 0	/ area: 25000000
       total - flux: 0	/ area: 50000000
ExecutionTime = 31.6 s  ClockTime = 32 s

Time = 3	Time Step = 6
Courant Number mean: 0.0800330590446 max: 0.0842623741551
PIMPLE: iteration 1
   Predictor...
<U_1> = (7.97393876942 1.16536821034e-05 -8.56002964993e-09)	<U_s> = (7.92199964882 1.67323092939e-05 0)	<dU/dn> = (0.00207756482396 -2.03145087618e-07 -6.84802371994e-10)
DILUPBiCG:  Solving for Ux, Initial residual = 0.0221958059552, Final residual = 3.65199528328e-09, No Iterations 3
DILUPBiCG:  Solving for Uy, Initial residual = 0.0306360656415, Final residual = 5.38583115365e-09, No Iterations 3
DILUPBiCG:  Solving for Uz, Initial residual = 0.0905844167644, Final residual = 1.62051570038e-08, No Iterations 3
DILUPBiCG:  Solving for k, Initial residual = 0.226868983548, Final residual = 1.63328779692e-08, No Iterations 3
uStarMean = 0.717877574448	LMean = 1e+30	phiMMean = 1	Avg iterations = 0
UParallelMeanMag = 7.93765961519	UParallelPMeanMag = 7.93946503816
RwMagMean = 0.515465427995	RwMeanMag = 0.515348211895	sqrt(RwMagMean) = 0.717959210537	sqrt(RwMeanMag) = 0.717877574448	uStarMean = 0.717877574448
DILUPBiCG:  Solving for T, Initial residual = 2.77128408991e-06, Final residual = 8.24462871996e-09, No Iterations 1
   Corrector Step 0...
GAMGPCG:  Solving for p_rgh, Initial residual = 0.000227936904612, Final residual = 2.17175214922e-06, No Iterations 1
<U_1> = (7.96876521275 -2.13243157815e-05 2.28693001545e-09)	<U_s> = (7.90655401759 -1.40685729257e-05 0)	<dU/dn> = (0.00248844780629 -2.90229714232e-07 1.82954401236e-10)
DILUPBiCG:  Solving for k, Initial residual = 0.000306678512616, Final residual = 5.97283893925e-08, No Iterations 2
uStarMean = 0.717877574448	LMean = 1e+30	phiMMean = 1	Avg iterations = 0
UParallelMeanMag = 7.93765961519	UParallelPMeanMag = 7.93946503683
RwMagMean = 0.515465427908	RwMeanMag = 0.515348211895	sqrt(RwMagMean) = 0.717959210477	sqrt(RwMeanMag) = 0.717877574448	uStarMean = 0.717877574448
DILUPBiCG:  Solving for T, Initial residual = 1.22915751905e-07, Final residual = 1.22915751905e-07, No Iterations 0
   Corrector Step 1...
GAMGPCG:  Solving for p_rgh, Initial residual = 2.26291449356e-06, Final residual = 4.87307278141e-07, No Iterations 1
<U_1> = (7.96876521275 -2.13243157806e-05 -7.11617096341e-09)	<U_s> = (7.90655401761 -1.4068572926e-05 0)	<dU/dn> = (0.00248844780554 -2.90229714185e-07 -5.69293677072e-10)
DILUPBiCG:  Solving for k, Initial residual = 2.5225255241e-05, Final residual = 4.19061634999e-07, No Iterations 1
uStarMean = 0.717877574449	LMean = 1e+30	phiMMean = 1	Avg iterations = 0
UParallelMeanMag = 7.9376596152	UParallelPMeanMag = 7.93946503683
RwMagMean = 0.515465427909	RwMeanMag = 0.515348211897	sqrt(RwMagMean) = 0.717959210477	sqrt(RwMeanMag) = 0.717877574449	uStarMean = 0.717877574449
DILUPBiCG:  Solving for T, Initial residual = 1.779853548e-08, Final residual = 1.779853548e-08, No Iterations 0
   Corrector Step 2...
GAMGPCG:  Solving for p_rgh, Initial residual = 4.880190478e-07, Final residual = 4.880190478e-07, No Iterations 0
<U_1> = (7.96876521275 -2.13243157805e-05 -7.12979308519e-09)	<U_s> = (7.90655401761 -1.40685729258e-05 0)	<dU/dn> = (0.00248844780554 -2.90229714188e-07 -5.70383446815e-10)
DILUPBiCG:  Solving for k, Initial residual = 4.83186133641e-07, Final residual = 4.83186133641e-07, No Iterations 0
uStarMean = 0.717877574449	LMean = 1e+30	phiMMean = 1	Avg iterations = 0
UParallelMeanMag = 7.9376596152	UParallelPMeanMag = 7.93946503683
RwMagMean = 0.515465427909	RwMeanMag = 0.515348211897	sqrt(RwMagMean) = 0.717959210477	sqrt(RwMeanMag) = 0.717877574449	uStarMean = 0.717877574449
DILUPBiCG:  Solving for T, Initial residual = 1.77207167536e-08, Final residual = 1.77207167536e-08, No Iterations 0
<U> at 99.27: (7.99999999949 -2.49763118186e-05 -3.89927180821e-08) m/s
<U>_desired: (8 0 0) m/s
<U>_error: (-5.0748649727e-10 -2.49763118186e-05 -3.89927180821e-08) m/s
<U_1> = (7.96876521311 -3.84152937705e-06 -7.12979308519e-09)	<U_s> = (7.90655401797 3.42225081546e-06 0)	<dU/dn> = (0.00248844780553 -2.905512077e-07 -5.70383446815e-10)
Continuity Report:
   -Local Cell Continuity Error:
       minimum: 3.82214815353e-17
       maximum: 2.17008886713e-07
       weighted mean: 8.19856829803e-10
   -Boundary Flux:
       lower - flux: 0	/ area: 25000000
       upper - flux: 0	/ area: 25000000
       total - flux: 0	/ area: 50000000
ExecutionTime = 32.69 s  ClockTime = 33 s

Time = 3.5	Time Step = 7
Courant Number mean: 0.0800305241267 max: 0.0841513302271
PIMPLE: iteration 1
   Predictor...
<U_1> = (7.96876521311 -3.84152937705e-06 -7.12979308519e-09)	<U_s> = (7.90655401797 3.42225081546e-06 0)	<dU/dn> = (0.00248844780553 -2.905512077e-07 -5.70383446815e-10)
DILUPBiCG:  Solving for Ux, Initial residual = 0.0210895071414, Final residual = 3.45261755252e-09, No Iterations 3
DILUPBiCG:  Solving for Uy, Initial residual = 0.0287580241229, Final residual = 5.14001433984e-09, No Iterations 3
DILUPBiCG:  Solving for Uz, Initial residual = 0.0788231527126, Final residual = 1.4391758763e-08, No Iterations 3
DILUPBiCG:  Solving for k, Initial residual = 0.199334871671, Final residual = 1.42998921162e-08, No Iterations 3
uStarMean = 0.716948197827	LMean = 1e+30	phiMMean = 1	Avg iterations = 0
UParallelMeanMag = 7.92738338491	UParallelPMeanMag = 7.92918423958
RwMagMean = 0.514131486507	RwMeanMag = 0.514014718368	sqrt(RwMagMean) = 0.717029627356	sqrt(RwMeanMag) = 0.716948197827	uStarMean = 0.716948197827
DILUPBiCG:  Solving for T, Initial residual = 2.74896774355e-06, Final residual = 8.18507669354e-09, No Iterations 1
   Corrector Step 0...
GAMGPCG:  Solving for p_rgh, Initial residual = 0.000225917531994, Final residual = 2.16395436177e-06, No Iterations 1
<U_1> = (7.96360507663 -1.77479092563e-05 2.89994091036e-09)	<U_s> = (7.89116169317 -7.76134192769e-06 0)	<dU/dn> = (0.00289773533866 -3.99462693142e-07 2.31995272829e-10)
DILUPBiCG:  Solving for k, Initial residual = 0.000273543211516, Final residual = 5.35601163395e-08, No Iterations 2
uStarMean = 0.716948197827	LMean = 1e+30	phiMMean = 1	Avg iterations = 0
UParallelMeanMag = 7.92738338491	UParallelPMeanMag = 7.92918423825
RwMagMean = 0.514131486421	RwMeanMag = 0.514014718368	sqrt(RwMagMean) = 0.717029627296	sqrt(RwMeanMag) = 0.716948197827	uStarMean = 0.716948197827
DILUPBiCG:  Solving for T, Initial residual = 1.22905212198e-07, Final residual = 1.22905212198e-07, No Iterations 0
   Corrector Step 1...
GAMGPCG:  Solving for p_rgh, Initial residual = 2.24958358408e-06, Final residual = 4.8142921945e-07, No Iterations 1
<U_1> = (7.96360507663 -1.77479092637e-05 -7.33254403329e-09)	<U_s> = (7.89116169319 -7.76134193667e-06 0)	<dU/dn> = (0.00289773533778 -3.99462693081e-07 -5.86603522663e-10)
DILUPBiCG:  Solving for k, Initial residual = 2.24671145961e-05, Final residual = 4.26008354505e-07, No Iterations 1
uStarMean = 0.716948197828	LMean = 1e+30	phiMMean = 1	Avg iterations = 0
UParallelMeanMag = 7.92738338492	UParallelPMeanMag = 7.92918423825
RwMagMean = 0.514131486422	RwMeanMag = 0.514014718369	sqrt(RwMagMean) = 0.717029627297	sqrt(RwMeanMag) = 0.716948197828	uStarMean = 0.716948197828
DILUPBiCG:  Solving for T, Initial residual = 1.72748258383e-08, Final residual = 1.72748258383e-08, No Iterations 0
   Corrector Step 2...
GAMGPCG:  Solving for p_rgh, Initial residual = 4.82240058644e-07, Final residual = 4.82240058644e-07, No Iterations 0
<U_1> = (7.96360507663 -1.77479092638e-05 -7.3473986403e-09)	<U_s> = (7.89116169319 -7.76134193691e-06 0)	<dU/dn> = (0.00289773533777 -3.99462693077e-07 -5.87791891224e-10)
DILUPBiCG:  Solving for k, Initial residual = 4.83039724897e-07, Final residual = 4.83039724897e-07, No Iterations 0
uStarMean = 0.716948197828	LMean = 1e+30	phiMMean = 1	Avg iterations = 0
UParallelMeanMag = 7.92738338492	UParallelPMeanMag = 7.92918423825
RwMagMean = 0.514131486422	RwMeanMag = 0.514014718369	sqrt(RwMagMean) = 0.717029627297	sqrt(RwMeanMag) = 0.716948197828	uStarMean = 0.716948197828
DILUPBiCG:  Solving for T, Initial residual = 1.71908550253e-08, Final residual = 1.71908550253e-08, No Iterations 0
<U> at 99.27: (7.99999999782 -2.27783746413e-05 -3.99530026993e-08) m/s
<U>_desired: (8 0 0) m/s
<U>_error: (-2.18305995503e-09 -2.27783746413e-05 -3.99530026993e-08) m/s
<U_1> = (7.96360507816 -1.80359717414e-06 -7.3473986403e-09)	<U_s> = (7.89116169472 8.19032350668e-06 0)	<dU/dn> = (0.00289773533774 -3.99756827233e-07 -5.87791891224e-10)
Continuity Report:
   -Local Cell Continuity Error:
       minimum: 1.2803823779e-14
       maximum: 3.7880451011e-07
       weighted mean: 8.09992487486e-10
   -Boundary Flux:
       lower - flux: 0	/ area: 25000000
       upper - flux: 0	/ area: 25000000
       total - flux: 0	/ area: 50000000
ExecutionTime = 33.79 s  ClockTime = 34 s

Time = 4	Time Step = 8
Courant Number mean: 0.0800279046727 max: 0.0840367520141
PIMPLE: iteration 1
   Predictor...
<U_1> = (7.96360507816 -1.80359717414e-06 -7.3473986403e-09)	<U_s> = (7.89116169472 8.19032350668e-06 0)	<dU/dn> = (0.00289773533774 -3.99756827233e-07 -5.87791891224e-10)
DILUPBiCG:  Solving for Ux, Initial residual = 0.0200870265427, Final residual = 3.271056423e-09, No Iterations 3
DILUPBiCG:  Solving for Uy, Initial residual = 0.0278740719956, Final residual = 4.99665526423e-09, No Iterations 3
DILUPBiCG:  Solving for Uz, Initial residual = 0.0698474134407, Final residual = 1.30899959218e-08, No Iterations 3
DILUPBiCG:  Solving for k, Initial residual = 0.177821084964, Final residual = 1.27135571686e-08, No Iterations 3
uStarMean = 0.716021823281	LMean = 1e+30	phiMMean = 1	Avg iterations = 0
UParallelMeanMag = 7.91714034893	UParallelPMeanMag = 7.91893666419
RwMagMean = 0.51280357472	RwMeanMag = 0.512687251415	sqrt(RwMagMean) = 0.716103047557	sqrt(RwMeanMag) = 0.716021823281	uStarMean = 0.716021823281
DILUPBiCG:  Solving for T, Initial residual = 2.72458614071e-06, Final residual = 8.11790729777e-09, No Iterations 1
   Corrector Step 0...
GAMGPCG:  Solving for p_rgh, Initial residual = 0.000224117918343, Final residual = 2.15287377545e-06, No Iterations 1
<U_1> = (7.95845831819 6.25911979538e-06 1.24074213027e-09)	<U_s> = (7.87582237965 1.9477423757e-05 0)	<dU/dn> = (0.00330543754186 -5.28732158464e-07 9.92593704214e-11)
DILUPBiCG:  Solving for k, Initial residual = 0.000246909148678, Final residual = 4.86144232233e-08, No Iterations 2
uStarMean = 0.716021823281	LMean = 1e+30	phiMMean = 1	Avg iterations = 0
UParallelMeanMag = 7.91714034893	UParallelPMeanMag = 7.91893666283
RwMagMean = 0.512803574632	RwMeanMag = 0.512687251415	sqrt(RwMagMean) = 0.716103047495	sqrt(RwMeanMag) = 0.716021823281	uStarMean = 0.716021823281
DILUPBiCG:  Solving for T, Initial residual = 1.21882884011e-07, Final residual = 1.21882884011e-07, No Iterations 0
   Corrector Step 1...
GAMGPCG:  Solving for p_rgh, Initial residual = 2.24217816892e-06, Final residual = 4.7998928521e-07, No Iterations 1
<U_1> = (7.9584583182 6.25911969367e-06 -8.5560327754e-09)	<U_s> = (7.87582237968 1.94774236313e-05 0)	<dU/dn> = (0.00330543754084 -5.28732157507e-07 -6.84482622032e-10)
DILUPBiCG:  Solving for k, Initial residual = 2.0254011235e-05, Final residual = 4.30450162236e-07, No Iterations 1
uStarMean = 0.716021823283	LMean = 1e+30	phiMMean = 1	Avg iterations = 0
UParallelMeanMag = 7.91714034895	UParallelPMeanMag = 7.91893666284
RwMagMean = 0.512803574634	RwMeanMag = 0.512687251417	sqrt(RwMagMean) = 0.716103047497	sqrt(RwMeanMag) = 0.716021823283	uStarMean = 0.716021823283
DILUPBiCG:  Solving for T, Initial residual = 1.71437181858e-08, Final residual = 1.71437181858e-08, No Iterations 0
   Corrector Step 2...
GAMGPCG:  Solving for p_rgh, Initial residual = 4.80738588506e-07, Final residual = 4.80738588506e-07, No Iterations 0
<U_1> = (7.9584583182 6.25911969152e-06 -8.57025262438e-09)	<U_s> = (7.87582237968 1.94774236289e-05 0)	<dU/dn> = (0.00330543754084 -5.28732157497e-07 -6.85620209951e-10)
DILUPBiCG:  Solving for k, Initial residual = 4.81792468539e-07, Final residual = 4.81792468539e-07, No Iterations 0
uStarMean = 0.716021823283	LMean = 1e+30	phiMMean = 1	Avg iterations = 0
UParallelMeanMag = 7.91714034895	UParallelPMeanMag = 7.91893666284
RwMagMean = 0.512803574634	RwMeanMag = 0.512687251417	sqrt(RwMagMean) = 0.716103047497	sqrt(RwMeanMag) = 0.716021823283	uStarMean = 0.716021823283
DILUPBiCG:  Solving for T, Initial residual = 1.70576887758e-08, Final residual = 1.70576887758e-08, No Iterations 0
<U> at 99.27: (7.99999999904 -4.044697365e-07 -4.02203672647e-08) m/s
<U>_desired: (8 0 0) m/s
<U>_error: (-9.55960643978e-10 -4.044697365e-07 -4.02203672647e-08) m/s
<U_1> = (7.95845831887 6.54223919133e-06 -8.57025262438e-09)	<U_s> = (7.87582238035 1.97606741009e-05 0)	<dU/dn> = (0.00330543754083 -5.28737396382e-07 -6.85620209951e-10)
Continuity Report:
   -Local Cell Continuity Error:
       minimum: 2.69184587901e-15
       maximum: 4.14429556899e-07
       weighted mean: 8.07315915946e-10
   -Boundary Flux:
       lower - flux: 0	/ area: 25000000
       upper - flux: 0	/ area: 25000000
       total - flux: 0	/ area: 50000000
ExecutionTime = 34.89 s  ClockTime = 36 s

Time = 4.5	Time Step = 9
Courant Number mean: 0.0800253944559 max: 0.0839284402972
PIMPLE: iteration 1
   Predictor...
<U_1> = (7.95845831887 6.54223919133e-06 -8.57025262438e-09)	<U_s> = (7.87582238035 1.97606741009e-05 0)	<dU/dn> = (0.00330543754083 -5.28737396382e-07 -6.85620209951e-10)
DILUPBiCG:  Solving for Ux, Initial residual = 0.0191743111551, Final residual = 3.1074801955e-09, No Iterations 3
DILUPBiCG:  Solving for Uy, Initial residual = 0.0280521404191, Final residual = 4.96785813236e-09, No Iterations 3
DILUPBiCG:  Solving for Uz, Initial residual = 0.0636874118661, Final residual = 1.27479971488e-08, No Iterations 3
DILUPBiCG:  Solving for k, Initial residual = 0.160534783181, Final residual = 1.14423066976e-08, No Iterations 3
uStarMean = 0.71509843326	LMean = 1e+30	phiMMean = 1	Avg iterations = 0
UParallelMeanMag = 7.90693031321	UParallelPMeanMag = 7.90872211434
RwMagMean = 0.511481650602	RwMeanMag = 0.511365769252	sqrt(RwMagMean) = 0.715179453425	sqrt(RwMeanMag) = 0.71509843326	uStarMean = 0.71509843326
DILUPBiCG:  Solving for T, Initial residual = 2.69985753745e-06, Final residual = 8.0489953352e-09, No Iterations 1
   Corrector Step 0...
GAMGPCG:  Solving for p_rgh, Initial residual = 0.000222120438054, Final residual = 2.1387573712e-06, No Iterations 1
<U_1> = (7.95332488069 1.71446143597e-05 -1.32400924679e-10)	<U_s> = (7.86053574565 3.40526827165e-05 0)	<dU/dn> = (0.00371156540188 -6.76322734275e-07 -1.05920739741e-11)
DILUPBiCG:  Solving for k, Initial residual = 0.000225023757633, Final residual = 4.45623665415e-08, No Iterations 2
uStarMean = 0.71509843326	LMean = 1e+30	phiMMean = 1	Avg iterations = 0
UParallelMeanMag = 7.90693031321	UParallelPMeanMag = 7.90872211309
RwMagMean = 0.511481650521	RwMeanMag = 0.511365769252	sqrt(RwMagMean) = 0.715179453369	sqrt(RwMeanMag) = 0.71509843326	uStarMean = 0.71509843326
DILUPBiCG:  Solving for T, Initial residual = 1.20872665008e-07, Final residual = 1.20872665008e-07, No Iterations 0
   Corrector Step 1...
GAMGPCG:  Solving for p_rgh, Initial residual = 2.22852161569e-06, Final residual = 4.77322440381e-07, No Iterations 1
<U_1> = (7.9533248807 1.71446144661e-05 -1.00275234637e-08)	<U_s> = (7.86053574568 3.40526828552e-05 0)	<dU/dn> = (0.00371156540073 -6.76322735564e-07 -8.02201877095e-10)
DILUPBiCG:  Solving for k, Initial residual = 1.84359758041e-05, Final residual = 4.32712632994e-07, No Iterations 1
uStarMean = 0.715098433262	LMean = 1e+30	phiMMean = 1	Avg iterations = 0
UParallelMeanMag = 7.90693031323	UParallelPMeanMag = 7.90872211309
RwMagMean = 0.511481650522	RwMeanMag = 0.511365769254	sqrt(RwMagMean) = 0.71517945337	sqrt(RwMeanMag) = 0.715098433262	uStarMean = 0.715098433262
DILUPBiCG:  Solving for T, Initial residual = 1.72193011624e-08, Final residual = 1.72193011624e-08, No Iterations 0
   Corrector Step 2...
GAMGPCG:  Solving for p_rgh, Initial residual = 4.77981532907e-07, Final residual = 4.77981532907e-07, No Iterations 0
<U_1> = (7.9533248807 1.71446144693e-05 -1.00417500372e-08)	<U_s> = (7.86053574568 3.40526828591e-05 0)	<dU/dn> = (0.00371156540073 -6.76322735592e-07 -8.03340002974e-10)
DILUPBiCG:  Solving for k, Initial residual = 4.79371750022e-07, Final residual = 4.79371750022e-07, No Iterations 0
uStarMean = 0.715098433262	LMean = 1e+30	phiMMean = 1	Avg iterations = 0
UParallelMeanMag = 7.90693031323	UParallelPMeanMag = 7.90872211309
RwMagMean = 0.511481650522	RwMeanMag = 0.511365769254	sqrt(RwMagMean) = 0.71517945337	sqrt(RwMeanMag) = 0.715098433262	uStarMean = 0.715098433262
DILUPBiCG:  Solving for T, Initial residual = 1.71318593523e-08, Final residual = 1.71318593523e-08, No Iterations 0
<U> at 99.27: (8.00000000054 8.61429676372e-06 -3.95565054257e-08) m/s
<U>_desired: (8 0 0) m/s
<U>_error: (5.41172440194e-10 8.61429676372e-06 -3.95565054257e-08) m/s
<U_1> = (7.95332488032 1.11147957011e-05 -1.00417500372e-08)	<U_s> = (7.8605357453 2.80200664274e-05 0)	<dU/dn> = (0.00371156540073 -6.76210829052e-07 -8.03340002974e-10)
Continuity Report:
   -Local Cell Continuity Error:
       minimum: 1.3610588212e-15
       maximum: 2.99910095637e-07
       weighted mean: 8.02533223111e-10
   -Boundary Flux:
       lower - flux: 0	/ area: 25000000
       upper - flux: 0	/ area: 25000000
       total - flux: 0	/ area: 50000000
ExecutionTime = 35.98 s  ClockTime = 37 s

Time = 5	Time Step = 10
Courant Number mean: 0.0800228194863 max: 0.0838133880037
PIMPLE: iteration 1
   Predictor...
<U_1> = (7.95332488032 1.11147957011e-05 -1.00417500372e-08)	<U_s> = (7.8605357453 2.80200664274e-05 0)	<dU/dn> = (0.00371156540073 -6.76210829052e-07 -8.03340002974e-10)
DILUPBiCG:  Solving for Ux, Initial residual = 0.0183357864293, Final residual = 2.9567256614e-09, No Iterations 3
DILUPBiCG:  Solving for Uy, Initial residual = 0.0273626086119, Final residual = 4.89031972857e-09, No Iterations 3
DILUPBiCG:  Solving for Uz, Initial residual = 0.058210002823, Final residual = 1.15019836864e-08, No Iterations 3
DILUPBiCG:  Solving for k, Initial residual = 0.146337210916, Final residual = 1.04019544337e-08, No Iterations 3
uStarMean = 0.71417800987	LMean = 1e+30	phiMMean = 1	Avg iterations = 0
UParallelMeanMag = 7.89675307989	UParallelPMeanMag = 7.89854039104
RwMagMean = 0.510165671972	RwMeanMag = 0.510050229782	sqrt(RwMagMean) = 0.714258827017	sqrt(RwMeanMag) = 0.71417800987	uStarMean = 0.71417800987
DILUPBiCG:  Solving for T, Initial residual = 2.6752137912e-06, Final residual = 7.97761304096e-09, No Iterations 1
   Corrector Step 0...
GAMGPCG:  Solving for p_rgh, Initial residual = 0.000220173841705, Final residual = 2.12251507431e-06, No Iterations 1
<U_1> = (7.9482047059 1.45817969263e-05 -8.84569426572e-10)	<U_s> = (7.8453014538 3.56408228998e-05 0)	<dU/dn> = (0.00411613008405 -8.42361038939e-07 -7.07655541259e-11)
DILUPBiCG:  Solving for k, Initial residual = 0.000206719055333, Final residual = 4.11848850432e-08, No Iterations 2
uStarMean = 0.71417800987	LMean = 1e+30	phiMMean = 1	Avg iterations = 0
UParallelMeanMag = 7.89675307989	UParallelPMeanMag = 7.89854038973
RwMagMean = 0.510165671887	RwMeanMag = 0.510050229782	sqrt(RwMagMean) = 0.714258826958	sqrt(RwMeanMag) = 0.71417800987	uStarMean = 0.71417800987
DILUPBiCG:  Solving for T, Initial residual = 1.20284592672e-07, Final residual = 1.20284592672e-07, No Iterations 0
   Corrector Step 1...
GAMGPCG:  Solving for p_rgh, Initial residual = 2.20845946855e-06, Final residual = 4.73534311763e-07, No Iterations 1
<U_1> = (7.9482047059 1.45817969728e-05 -1.07276526031e-08)	<U_s> = (7.84530145383 3.56408229743e-05 0)	<dU/dn> = (0.00411613008279 -8.4236104006e-07 -8.58212208249e-10)
DILUPBiCG:  Solving for k, Initial residual = 1.69150031697e-05, Final residual = 4.33235685042e-07, No Iterations 1
uStarMean = 0.714178009872	LMean = 1e+30	phiMMean = 1	Avg iterations = 0
UParallelMeanMag = 7.89675307991	UParallelPMeanMag = 7.89854038974
RwMagMean = 0.510165671889	RwMeanMag = 0.510050229784	sqrt(RwMagMean) = 0.714258826959	sqrt(RwMeanMag) = 0.714178009872	uStarMean = 0.714178009872
DILUPBiCG:  Solving for T, Initial residual = 1.67339053364e-08, Final residual = 1.67339053364e-08, No Iterations 0
   Corrector Step 2...
GAMGPCG:  Solving for p_rgh, Initial residual = 4.74133210861e-07, Final residual = 4.74133210861e-07, No Iterations 0
<U_1> = (7.9482047059 1.4581796975e-05 -1.07417729163e-08)	<U_s> = (7.84530145383 3.56408229781e-05 0)	<dU/dn> = (0.00411613008278 -8.42361040124e-07 -8.59341833304e-10)
DILUPBiCG:  Solving for k, Initial residual = 4.76624339031e-07, Final residual = 4.76624339031e-07, No Iterations 0
uStarMean = 0.714178009872	LMean = 1e+30	phiMMean = 1	Avg iterations = 0
UParallelMeanMag = 7.89675307991	UParallelPMeanMag = 7.89854038974
RwMagMean = 0.510165671889	RwMeanMag = 0.510050229784	sqrt(RwMagMean) = 0.714258826959	sqrt(RwMeanMag) = 0.714178009872	uStarMean = 0.714178009872
DILUPBiCG:  Solving for T, Initial residual = 1.66405195395e-08, Final residual = 1.66405195395e-08, No Iterations 0
<U> at 99.27: (8.00000000066 3.94892111532e-06 -3.73221360475e-08) m/s
<U>_desired: (8 0 0) m/s
<U>_error: (6.62968346887e-10 3.94892111532e-06 -3.73221360475e-08) m/s
<U_1> = (7.94820470544 1.18176345909e-05 -1.07417729163e-08)	<U_s> = (7.84530145337 3.28753744459e-05 0)	<dU/dn> = (0.00411613008279 -8.42309594202e-07 -8.59341833304e-10)
Continuity Report:
   -Local Cell Continuity Error:
       minimum: 3.78349795938e-16
       maximum: 2.60922331712e-07
       weighted mean: 7.95921600973e-10
   -Boundary Flux:
       lower - flux: 0	/ area: 25000000
       upper - flux: 0	/ area: 25000000
       total - flux: 0	/ area: 50000000
ExecutionTime = 37.14 s  ClockTime = 38 s

Time = 5.5	Time Step = 11
Courant Number mean: 0.0800203361101 max: 0.0837069472838
PIMPLE: iteration 1
   Predictor...
<U_1> = (7.94820470544 1.18176345909e-05 -1.07417729163e-08)	<U_s> = (7.84530145337 3.28753744459e-05 0)	<dU/dn> = (0.00411613008279 -8.42309594202e-07 -8.59341833304e-10)
DILUPBiCG:  Solving for Ux, Initial residual = 0.0175239255573, Final residual = 2.81210430208e-09, No Iterations 3
DILUPBiCG:  Solving for Uy, Initial residual = 0.0274220759395, Final residual = 4.8580884129e-09, No Iterations 3
DILUPBiCG:  Solving for Uz, Initial residual = 0.0541083162134, Final residual = 1.09509245795e-08, No Iterations 3
DILUPBiCG:  Solving for k, Initial residual = 0.134467004103, Final residual = 9.53488141689e-09, No Iterations 3
uStarMean = 0.713260535432	LMean = 1e+30	phiMMean = 1	Avg iterations = 0
UParallelMeanMag = 7.88660845348	UParallelPMeanMag = 7.88839129799
RwMagMean = 0.508855597161	RwMeanMag = 0.508740591404	sqrt(RwMagMean) = 0.713341150615	sqrt(RwMeanMag) = 0.713260535432	uStarMean = 0.713260535432
DILUPBiCG:  Solving for T, Initial residual = 2.65078490463e-06, Final residual = 7.90670819991e-09, No Iterations 1
   Corrector Step 0...
GAMGPCG:  Solving for p_rgh, Initial residual = 0.000218015367402, Final residual = 2.10584401873e-06, No Iterations 1
<U_1> = (7.94309773724 1.13916117594e-05 -6.40322034972e-09)	<U_s> = (7.83011916965 3.70781257091e-05 0)	<dU/dn> = (0.00451914270337 -1.02746055799e-06 -5.12257627977e-10)
DILUPBiCG:  Solving for k, Initial residual = 0.000191183132634, Final residual = 9.91340538696e-07, No Iterations 1
uStarMean = 0.713260535432	LMean = 1e+30	phiMMean = 1	Avg iterations = 0
UParallelMeanMag = 7.88660845348	UParallelPMeanMag = 7.88839129676
RwMagMean = 0.508855597082	RwMeanMag = 0.508740591405	sqrt(RwMagMean) = 0.71334115056	sqrt(RwMeanMag) = 0.713260535432	uStarMean = 0.713260535432
DILUPBiCG:  Solving for T, Initial residual = 1.19235500155e-07, Final residual = 1.19235500155e-07, No Iterations 0
   Corrector Step 1...
GAMGPCG:  Solving for p_rgh, Initial residual = 2.18763002454e-06, Final residual = 4.68913315871e-07, No Iterations 1
<U_1> = (7.94309773724 1.13916116538e-05 -1.64371324478e-08)	<U_s> = (7.83011916969 3.7078125573e-05 0)	<dU/dn> = (0.00451914270198 -1.02746055677e-06 -1.31497059582e-09)
DILUPBiCG:  Solving for k, Initial residual = 1.60315786032e-05, Final residual = 3.02763506865e-07, No Iterations 1
uStarMean = 0.713260535434	LMean = 1e+30	phiMMean = 1	Avg iterations = 0
UParallelMeanMag = 7.8866084535	UParallelPMeanMag = 7.88839129677
RwMagMean = 0.508855597083	RwMeanMag = 0.508740591407	sqrt(RwMagMean) = 0.713341150561	sqrt(RwMeanMag) = 0.713260535434	uStarMean = 0.713260535434
DILUPBiCG:  Solving for T, Initial residual = 1.6522326376e-08, Final residual = 1.6522326376e-08, No Iterations 0
   Corrector Step 2...
GAMGPCG:  Solving for p_rgh, Initial residual = 4.69587762968e-07, Final residual = 4.69587762968e-07, No Iterations 0
<U_1> = (7.94309773724 1.13916116515e-05 -1.64514818553e-08)	<U_s> = (7.83011916969 3.70781255693e-05 0)	<dU/dn> = (0.00451914270197 -1.02746055671e-06 -1.31611854843e-09)
DILUPBiCG:  Solving for k, Initial residual = 3.43292066159e-07, Final residual = 3.43292066159e-07, No Iterations 0
uStarMean = 0.713260535434	LMean = 1e+30	phiMMean = 1	Avg iterations = 0
UParallelMeanMag = 7.8866084535	UParallelPMeanMag = 7.88839129677
RwMagMean = 0.508855597083	RwMeanMag = 0.508740591407	sqrt(RwMagMean) = 0.713341150561	sqrt(RwMeanMag) = 0.713260535434	uStarMean = 0.713260535434
DILUPBiCG:  Solving for T, Initial residual = 1.64402568133e-08, Final residual = 1.64402568133e-08, No Iterations 0
<U> at 99.27: (7.99999999998 -1.58802697234e-06 -4.21689010001e-08) m/s
<U>_desired: (8 0 0) m/s
<U>_error: (-1.85922388596e-11 -1.58802697234e-06 -4.21689010001e-08) m/s
<U_1> = (7.94309773725 1.25031990584e-05 -1.64514818553e-08)	<U_s> = (7.8301191697 3.81902316121e-05 0)	<dU/dn> = (0.00451914270197 -1.02748130215e-06 -1.31611854843e-09)
Continuity Report:
   -Local Cell Continuity Error:
       minimum: 7.27595761418e-16
       maximum: 2.8921506842e-07
       weighted mean: 7.88143694704e-10
   -Boundary Flux:
       lower - flux: 0	/ area: 25000000
       upper - flux: 0	/ area: 25000000
       total - flux: 0	/ area: 50000000
ExecutionTime = 38.23 s  ClockTime = 39 s

Time = 6	Time Step = 12
Courant Number mean: 0.0800177983323 max: 0.0835948434772
PIMPLE: iteration 1
   Predictor...
<U_1> = (7.94309773725 1.25031990584e-05 -1.64514818553e-08)	<U_s> = (7.8301191697 3.81902316121e-05 0)	<dU/dn> = (0.00451914270197 -1.02748130215e-06 -1.31611854843e-09)
DILUPBiCG:  Solving for Ux, Initial residual = 0.0167365519199, Final residual = 2.67276670979e-09, No Iterations 3
DILUPBiCG:  Solving for Uy, Initial residual = 0.027324974368, Final residual = 4.81309910152e-09, No Iterations 3
DILUPBiCG:  Solving for Uz, Initial residual = 0.0505566207545, Final residual = 1.05642849616e-08, No Iterations 3
DILUPBiCG:  Solving for k, Initial residual = 0.124394693904, Final residual = 8.80156655129e-09, No Iterations 3
uStarMean = 0.712345992458	LMean = 1e+30	phiMMean = 1	Avg iterations = 0
UParallelMeanMag = 7.87649624064	UParallelPMeanMag = 7.87827464166
RwMagMean = 0.507551384999	RwMeanMag = 0.507436812971	sqrt(RwMagMean) = 0.712426406725	sqrt(RwMeanMag) = 0.712345992458	uStarMean = 0.712345992458
DILUPBiCG:  Solving for T, Initial residual = 2.62658953236e-06, Final residual = 7.83624654736e-09, No Iterations 1
   Corrector Step 0...
GAMGPCG:  Solving for p_rgh, Initial residual = 0.000216498733517, Final residual = 2.09105292373e-06, No Iterations 1
<U_1> = (7.93800391873 1.33479816099e-05 -1.11249487997e-08)	<U_s> = (7.81498856244 4.41412575737e-05 0)	<dU/dn> = (0.00492061425188 -1.23173103855e-06 -8.8999590398e-10)
DILUPBiCG:  Solving for k, Initial residual = 0.000177832918514, Final residual = 9.49020050681e-07, No Iterations 1
uStarMean = 0.712345992458	LMean = 1e+30	phiMMean = 1	Avg iterations = 0
UParallelMeanMag = 7.87649624064	UParallelPMeanMag = 7.87827464037
RwMagMean = 0.507551384916	RwMeanMag = 0.507436812971	sqrt(RwMagMean) = 0.712426406667	sqrt(RwMeanMag) = 0.712345992458	uStarMean = 0.712345992458
DILUPBiCG:  Solving for T, Initial residual = 1.18463624369e-07, Final residual = 1.18463624369e-07, No Iterations 0
   Corrector Step 1...
GAMGPCG:  Solving for p_rgh, Initial residual = 2.17763383231e-06, Final residual = 4.67337492377e-07, No Iterations 1
<U_1> = (7.93800391874 1.33479815325e-05 -2.0577255651e-08)	<U_s> = (7.81498856248 4.41412574844e-05 0)	<dU/dn> = (0.00492061425037 -1.23173103807e-06 -1.64618045208e-09)
DILUPBiCG:  Solving for k, Initial residual = 1.48990424366e-05, Final residual = 3.04072676392e-07, No Iterations 1
uStarMean = 0.71234599246	LMean = 1e+30	phiMMean = 1	Avg iterations = 0
UParallelMeanMag = 7.87649624066	UParallelPMeanMag = 7.87827464038
RwMagMean = 0.507551384918	RwMeanMag = 0.507436812974	sqrt(RwMagMean) = 0.712426406668	sqrt(RwMeanMag) = 0.71234599246	uStarMean = 0.71234599246
DILUPBiCG:  Solving for T, Initial residual = 1.61710014982e-08, Final residual = 1.61710014982e-08, No Iterations 0
   Corrector Step 2...
GAMGPCG:  Solving for p_rgh, Initial residual = 4.67853498932e-07, Final residual = 4.67853498932e-07, No Iterations 0
<U_1> = (7.93800391874 1.33479815315e-05 -2.0590769902e-08)	<U_s> = (7.81498856248 4.41412574824e-05 0)	<dU/dn> = (0.00492061425036 -1.23173103804e-06 -1.64726159216e-09)
DILUPBiCG:  Solving for k, Initial residual = 3.42248045132e-07, Final residual = 3.42248045132e-07, No Iterations 0
uStarMean = 0.71234599246	LMean = 1e+30	phiMMean = 1	Avg iterations = 0
UParallelMeanMag = 7.87649624066	UParallelPMeanMag = 7.87827464038
RwMagMean = 0.507551384918	RwMeanMag = 0.507436812974	sqrt(RwMagMean) = 0.712426406668	sqrt(RwMeanMag) = 0.71234599246	uStarMean = 0.71234599246
DILUPBiCG:  Solving for T, Initial residual = 1.60746478328e-08, Final residual = 1.60746478328e-08, No Iterations 0
<U> at 99.27: (7.99999999957 -2.22460084152e-06 -4.30410994509e-08) m/s
<U>_desired: (8 0 0) m/s
<U>_error: (-4.29785096401e-10 -2.22460084152e-06 -4.30410994509e-08) m/s
<U_1> = (7.93800391904 1.49051603039e-05 -2.0590769902e-08)	<U_s> = (7.81498856278 4.56991647147e-05 0)	<dU/dn> = (0.00492061425036 -1.23176017643e-06 -1.64726159216e-09)
Continuity Report:
   -Local Cell Continuity Error:
       minimum: 3.20142135024e-16
       maximum: 3.14406987687e-07
       weighted mean: 7.85087249377e-10
   -Boundary Flux:
       lower - flux: 0	/ area: 25000000
       upper - flux: 0	/ area: 25000000
       total - flux: 0	/ area: 50000000
ExecutionTime = 39.3 s  ClockTime = 40 s

Time = 6.5	Time Step = 13
Courant Number mean: 0.0800152838565 max: 0.0834854540321
PIMPLE: iteration 1
   Predictor...
<U_1> = (7.93800391904 1.49051603039e-05 -2.0590769902e-08)	<U_s> = (7.81498856278 4.56991647147e-05 0)	<dU/dn> = (0.00492061425036 -1.23176017643e-06 -1.64726159216e-09)
DILUPBiCG:  Solving for Ux, Initial residual = 0.0160121596159, Final residual = 2.54505470205e-09, No Iterations 3
DILUPBiCG:  Solving for Uy, Initial residual = 0.0271554211188, Final residual = 4.76312391996e-09, No Iterations 3
DILUPBiCG:  Solving for Uz, Initial residual = 0.0476922971141, Final residual = 1.03159865405e-08, No Iterations 3
DILUPBiCG:  Solving for k, Initial residual = 0.115740266522, Final residual = 8.17347505097e-09, No Iterations 3
uStarMean = 0.71143436357	LMean = 1e+30	phiMMean = 1	Avg iterations = 0
UParallelMeanMag = 7.86641624919	UParallelPMeanMag = 7.86819022937
RwMagMean = 0.506252994627	RwMeanMag = 0.506138853668	sqrt(RwMagMean) = 0.711514577944	sqrt(RwMeanMag) = 0.71143436357	uStarMean = 0.71143436357
DILUPBiCG:  Solving for T, Initial residual = 2.6027826326e-06, Final residual = 7.7660631646e-09, No Iterations 1
   Corrector Step 0...
GAMGPCG:  Solving for p_rgh, Initial residual = 0.000214302870396, Final residual = 2.07489004679e-06, No Iterations 1
<U_1> = (7.93292319382 1.80419678537e-05 -1.38732466406e-08)	<U_s> = (7.79990930439 5.44137579012e-05 0)	<dU/dn> = (0.00532055557725 -1.4548716019e-06 -1.10985973124e-09)
DILUPBiCG:  Solving for k, Initial residual = 0.000166238445116, Final residual = 9.09802943062e-07, No Iterations 1
uStarMean = 0.71143436357	LMean = 1e+30	phiMMean = 1	Avg iterations = 0
UParallelMeanMag = 7.86641624919	UParallelPMeanMag = 7.86819022813
RwMagMean = 0.506252994547	RwMeanMag = 0.506138853668	sqrt(RwMagMean) = 0.711514577888	sqrt(RwMeanMag) = 0.71143436357	uStarMean = 0.71143436357
DILUPBiCG:  Solving for T, Initial residual = 1.1755368704e-07, Final residual = 1.1755368704e-07, No Iterations 0
   Corrector Step 1...
GAMGPCG:  Solving for p_rgh, Initial residual = 2.15219622456e-06, Final residual = 4.62276178482e-07, No Iterations 1
<U_1> = (7.93292319383 1.80419678289e-05 -2.34070274805e-08)	<U_s> = (7.79990930444 5.44137578844e-05 0)	<dU/dn> = (0.00532055557563 -1.45487160222e-06 -1.87256219844e-09)
DILUPBiCG:  Solving for k, Initial residual = 1.39143225749e-05, Final residual = 3.04185936879e-07, No Iterations 1
uStarMean = 0.711434363572	LMean = 1e+30	phiMMean = 1	Avg iterations = 0
UParallelMeanMag = 7.86641624921	UParallelPMeanMag = 7.86819022814
[...]
uStarMean = 0.481639764984	LMean = 1e+30	phiMMean = 1	Avg iterations = 0
UParallelMeanMag = 5.32554943581	UParallelPMeanMag = 5.32612114717
RwMagMean = 0.232001766523	RwMeanMag = 0.231976863214	sqrt(RwMagMean) = 0.48166561692	sqrt(RwMeanMag) = 0.481639764984	uStarMean = 0.481639764984
DILUPBiCG:  Solving for T, Initial residual = 1.88315119825e-07, Final residual = 1.88315119825e-07, No Iterations 0
   Corrector Step 1...
GAMGPCG:  Solving for p_rgh, Initial residual = 7.43055120213e-07, Final residual = 7.43055120213e-07, No Iterations 0
<U_1> = (6.43695861643 0.0174433072275 -7.47761694423e-06)	<U_s> = (4.21398815491 0.0394781185662 0)	<dU/dn> = (0.0889188184607 -0.000881392453548 -5.98209355539e-07)
DILUPBiCG:  Solving for k, Initial residual = 9.10599871313e-08, Final residual = 9.10599871313e-08, No Iterations 0
uStarMean = 0.481639764987	LMean = 1e+30	phiMMean = 1	Avg iterations = 0
UParallelMeanMag = 5.32554943585	UParallelPMeanMag = 5.32612114679
RwMagMean = 0.232001766509	RwMeanMag = 0.231976863217	sqrt(RwMagMean) = 0.481665616905	sqrt(RwMeanMag) = 0.481639764987	uStarMean = 0.481639764987
DILUPBiCG:  Solving for T, Initial residual = 2.10953844507e-07, Final residual = 2.10953844507e-07, No Iterations 0
   Corrector Step 2...
GAMGPCG:  Solving for p_rgh, Initial residual = 7.43360826293e-07, Final residual = 7.43360826293e-07, No Iterations 0
<U_1> = (6.43695861644 0.0174433072278 -7.47761700614e-06)	<U_s> = (4.21398815494 0.0394781185642 0)	<dU/dn> = (0.08891881846 -0.000881392453456 -5.98209360491e-07)
DILUPBiCG:  Solving for k, Initial residual = 9.10188556337e-08, Final residual = 9.10188556337e-08, No Iterations 0
uStarMean = 0.481639764989	LMean = 1e+30	phiMMean = 1	Avg iterations = 0
UParallelMeanMag = 5.32554943586	UParallelPMeanMag = 5.32612114681
RwMagMean = 0.23200176651	RwMeanMag = 0.231976863218	sqrt(RwMagMean) = 0.481665616907	sqrt(RwMeanMag) = 0.481639764989	uStarMean = 0.481639764989
DILUPBiCG:  Solving for T, Initial residual = 2.10965024774e-07, Final residual = 2.10965024774e-07, No Iterations 0
<U> at 99.27: (7.99999994746 1.08727913721e-09 1.76009064859e-05) m/s
<U>_desired: (8 0 0) m/s
<U>_error: (-5.25379739713e-08 1.08727913721e-09 1.76009064859e-05) m/s
<U_1> = (6.43695865318 0.0174433064674 -7.47761700614e-06)	<U_s> = (4.2139881917 0.0394781178035 0)	<dU/dn> = (0.0889188184594 -0.000881392453443 -5.98209360491e-07)
Continuity Report:
   -Local Cell Continuity Error:
       minimum: 4.66350291717e-16
       maximum: 6.94592218861e-07
       weighted mean: 1.24527856776e-09
   -Boundary Flux:
       lower - flux: 0	/ area: 25000000
       upper - flux: 0	/ area: 25000000
       total - flux: 0	/ area: 50000000
ExecutionTime = 540.35 s  ClockTime = 597 s

Time = 236	Time Step = 472
Courant Number mean: 0.0792600625086 max: 0.0802750986543
PIMPLE: iteration 1
   Predictor...
<U_1> = (6.43695865318 0.0174433064674 -7.47761700614e-06)	<U_s> = (4.2139881917 0.0394781178035 0)	<dU/dn> = (0.0889188184594 -0.000881392453443 -5.98209360491e-07)
DILUPBiCG:  Solving for Ux, Initial residual = 0.000436261137403, Final residual = 3.67625736228e-08, No Iterations 2
DILUPBiCG:  Solving for Uy, Initial residual = 0.0153205692795, Final residual = 6.59136761972e-09, No Iterations 3
DILUPBiCG:  Solving for Uz, Initial residual = 0.0191202718998, Final residual = 5.96557621119e-09, No Iterations 3
DILUPBiCG:  Solving for k, Initial residual = 0.00207044552382, Final residual = 2.39462562619e-07, No Iterations 2
uStarMean = 0.48140805764	LMean = 1e+30	phiMMean = 1	Avg iterations = 0
UParallelMeanMag = 5.32298741954	UParallelPMeanMag = 5.32355779467
RwMagMean = 0.231778551113	RwMeanMag = 0.23175371796	sqrt(RwMagMean) = 0.481433849156	sqrt(RwMeanMag) = 0.48140805764	uStarMean = 0.48140805764
DILUPBiCG:  Solving for T, Initial residual = 2.1072606687e-07, Final residual = 2.1072606687e-07, No Iterations 0
   Corrector Step 0...
GAMGPCG:  Solving for p_rgh, Initial residual = 5.19160571305e-05, Final residual = 2.55013455703e-07, No Iterations 1
<U_1> = (6.43478795278 0.0175038295927 -7.1884638785e-06)	<U_s> = (4.21103376826 0.0395833845347 0)	<dU/dn> = (0.0889501673807 -0.000883182197681 -5.7507711028e-07)
DILUPBiCG:  Solving for k, Initial residual = 7.94242763828e-06, Final residual = 1.9301224471e-08, No Iterations 1
uStarMean = 0.481408055074	LMean = 1e+30	phiMMean = 1	Avg iterations = 0
UParallelMeanMag = 5.32298739117	UParallelPMeanMag = 5.32355775179
RwMagMean = 0.231778548011	RwMeanMag = 0.23175371549	sqrt(RwMagMean) = 0.481433845934	sqrt(RwMeanMag) = 0.481408055074	uStarMean = 0.481408055074
DILUPBiCG:  Solving for T, Initial residual = 1.88823961724e-07, Final residual = 1.88823961724e-07, No Iterations 0
   Corrector Step 1...
GAMGPCG:  Solving for p_rgh, Initial residual = 7.52570059574e-07, Final residual = 7.52570059574e-07, No Iterations 0
<U_1> = (6.43478795281 0.0175038295744 -7.1881089983e-06)	<U_s> = (4.21103376831 0.0395833844649 0)	<dU/dn> = (0.0889501673802 -0.000883182195619 -5.75048719864e-07)
DILUPBiCG:  Solving for k, Initial residual = 9.0455686037e-08, Final residual = 9.0455686037e-08, No Iterations 0
uStarMean = 0.481408055078	LMean = 1e+30	phiMMean = 1	Avg iterations = 0
UParallelMeanMag = 5.32298739121	UParallelPMeanMag = 5.32355775142
RwMagMean = 0.231778547996	RwMeanMag = 0.231753715494	sqrt(RwMagMean) = 0.481433845919	sqrt(RwMeanMag) = 0.481408055078	uStarMean = 0.481408055078
DILUPBiCG:  Solving for T, Initial residual = 2.10668103004e-07, Final residual = 2.10668103004e-07, No Iterations 0
   Corrector Step 2...
GAMGPCG:  Solving for p_rgh, Initial residual = 7.51724415643e-07, Final residual = 7.51724415643e-07, No Iterations 0
<U_1> = (6.43478795282 0.017503829575 -7.1881085206e-06)	<U_s> = (4.21103376833 0.0395833844659 0)	<dU/dn> = (0.0889501673794 -0.000883182195635 -5.75048681648e-07)
DILUPBiCG:  Solving for k, Initial residual = 9.04152856147e-08, Final residual = 9.04152856147e-08, No Iterations 0
uStarMean = 0.481408055079	LMean = 1e+30	phiMMean = 1	Avg iterations = 0
UParallelMeanMag = 5.32298739122	UParallelPMeanMag = 5.32355775144
RwMagMean = 0.231778547998	RwMeanMag = 0.231753715495	sqrt(RwMagMean) = 0.481433845921	sqrt(RwMeanMag) = 0.481408055079	uStarMean = 0.481408055079
DILUPBiCG:  Solving for T, Initial residual = 2.1065381676e-07, Final residual = 2.1065381676e-07, No Iterations 0
<U> at 99.27: (7.99999994701 1.09726416499e-09 1.78979800772e-05) m/s
<U>_desired: (8 0 0) m/s
<U>_error: (-5.29862900223e-08 1.09726416499e-09 1.78979800772e-05) m/s
<U_1> = (6.43478798987 0.0175038288076 -7.1881085206e-06)	<U_s> = (4.2110338054 0.0395833836981 0)	<dU/dn> = (0.0889501673787 -0.000883182195622 -5.75048681648e-07)
Continuity Report:
   -Local Cell Continuity Error:
       minimum: 2.91038304567e-17
       maximum: 7.26365572729e-07
       weighted mean: 1.2592999704e-09
   -Boundary Flux:
       lower - flux: 0	/ area: 25000000
       upper - flux: 0	/ area: 25000000
       total - flux: 0	/ area: 50000000
ExecutionTime = 541.37 s  ClockTime = 598 s

Time = 236.5	Time Step = 473
Courant Number mean: 0.079258931036 max: 0.0802738834958
PIMPLE: iteration 1
   Predictor...
<U_1> = (6.43478798987 0.0175038288076 -7.1881085206e-06)	<U_s> = (4.2110338054 0.0395833836981 0)	<dU/dn> = (0.0889501673787 -0.000883182195622 -5.75048681648e-07)
DILUPBiCG:  Solving for Ux, Initial residual = 0.000435423574514, Final residual = 3.67163375171e-08, No Iterations 2
DILUPBiCG:  Solving for Uy, Initial residual = 0.0152862803232, Final residual = 6.57532463368e-09, No Iterations 3
DILUPBiCG:  Solving for Uz, Initial residual = 0.0191421861097, Final residual = 5.92873563664e-09, No Iterations 3
DILUPBiCG:  Solving for k, Initial residual = 0.00205874924963, Final residual = 2.38159811347e-07, No Iterations 2
uStarMean = 0.481177027373	LMean = 1e+30	phiMMean = 1	Avg iterations = 0
UParallelMeanMag = 5.32043288979	UParallelPMeanMag = 5.32100192337
RwMagMean = 0.231556094525	RwMeanMag = 0.231531331671	sqrt(RwMagMean) = 0.481202758227	sqrt(RwMeanMag) = 0.481177027373	uStarMean = 0.481177027373
DILUPBiCG:  Solving for T, Initial residual = 2.10415981626e-07, Final residual = 2.10415981626e-07, No Iterations 0
   Corrector Step 0...
GAMGPCG:  Solving for p_rgh, Initial residual = 5.0771828059e-05, Final residual = 2.24415050446e-07, No Iterations 1
<U_1> = (6.43262027806 0.0175644112259 -7.04547674279e-06)	<U_s> = (4.20809141911 0.039688586625 0)	<dU/dn> = (0.0889811543581 -0.000884967015966 -5.63638139423e-07)
DILUPBiCG:  Solving for k, Initial residual = 7.89461490869e-06, Final residual = 1.92077607146e-08, No Iterations 1
uStarMean = 0.4811770248	LMean = 1e+30	phiMMean = 1	Avg iterations = 0
UParallelMeanMag = 5.32043286134	UParallelPMeanMag = 5.32100187672
RwMagMean = 0.231556091257	RwMeanMag = 0.231531329195	sqrt(RwMagMean) = 0.481202754831	sqrt(RwMeanMag) = 0.4811770248	uStarMean = 0.4811770248
DILUPBiCG:  Solving for T, Initial residual = 1.86876975797e-07, Final residual = 1.86876975797e-07, No Iterations 0
   Corrector Step 1...
GAMGPCG:  Solving for p_rgh, Initial residual = 7.78898951624e-07, Final residual = 7.78898951624e-07, No Iterations 0
<U_1> = (6.43262027806 0.0175644112485 -7.04605256014e-06)	<U_s> = (4.20809141905 0.0396885866243 0)	<dU/dn> = (0.0889811543603 -0.000884967015031 -5.63684204811e-07)
DILUPBiCG:  Solving for k, Initial residual = 8.98000069695e-08, Final residual = 8.98000069695e-08, No Iterations 0
uStarMean = 0.481177024797	LMean = 1e+30	phiMMean = 1	Avg iterations = 0
UParallelMeanMag = 5.32043286131	UParallelPMeanMag = 5.32100187602
RwMagMean = 0.231556091226	RwMeanMag = 0.231531329193	sqrt(RwMagMean) = 0.481202754798	sqrt(RwMeanMag) = 0.481177024797	uStarMean = 0.481177024797
DILUPBiCG:  Solving for T, Initial residual = 2.11025477323e-07, Final residual = 2.11025477323e-07, No Iterations 0
   Corrector Step 2...
GAMGPCG:  Solving for p_rgh, Initial residual = 7.7812126783e-07, Final residual = 7.7812126783e-07, No Iterations 0
<U_1> = (6.43262027807 0.0175644112472 -7.04605422452e-06)	<U_s> = (4.20809141909 0.0396885866205 0)	<dU/dn> = (0.0889811543592 -0.000884967014931 -5.63684337961e-07)
DILUPBiCG:  Solving for k, Initial residual = 8.97617274426e-08, Final residual = 8.97617274426e-08, No Iterations 0
uStarMean = 0.481177024799	LMean = 1e+30	phiMMean = 1	Avg iterations = 0
UParallelMeanMag = 5.32043286133	UParallelPMeanMag = 5.32100187605
RwMagMean = 0.231556091228	RwMeanMag = 0.231531329195	sqrt(RwMagMean) = 0.481202754801	sqrt(RwMeanMag) = 0.481177024799	uStarMean = 0.481177024799
DILUPBiCG:  Solving for T, Initial residual = 2.11069712587e-07, Final residual = 2.11069712587e-07, No Iterations 0
<U> at 99.27: (7.99999994802 1.10446028683e-09 1.79423204339e-05) m/s
<U>_desired: (8 0 0) m/s
<U>_error: (-5.19817193734e-08 1.10446028683e-09 1.79423204339e-05) m/s
<U_1> = (6.43262031442 0.0175644104748 -7.04605422452e-06)	<U_s> = (4.20809145546 0.0396885858478 0)	<dU/dn> = (0.0889811543586 -0.000884967014918 -5.63684337961e-07)
Continuity Report:
   -Local Cell Continuity Error:
       minimum: 6.69388100505e-16
       maximum: 9.57139475402e-07
       weighted mean: 1.30352126105e-09
   -Boundary Flux:
       lower - flux: 0	/ area: 25000000
       upper - flux: 0	/ area: 25000000
       total - flux: 0	/ area: 50000000
ExecutionTime = 542.37 s  ClockTime = 599 s

Time = 237	Time Step = 474
Courant Number mean: 0.0792577971469 max: 0.0802744781787
PIMPLE: iteration 1
   Predictor...
<U_1> = (6.43262031442 0.0175644104748 -7.04605422452e-06)	<U_s> = (4.20809145546 0.0396885858478 0)	<dU/dn> = (0.0889811543586 -0.000884967014918 -5.63684337961e-07)
DILUPBiCG:  Solving for Ux, Initial residual = 0.000434544307926, Final residual = 3.66766934656e-08, No Iterations 2
DILUPBiCG:  Solving for Uy, Initial residual = 0.0152424999925, Final residual = 6.55191945826e-09, No Iterations 3
DILUPBiCG:  Solving for Uz, Initial residual = 0.0190982218955, Final residual = 5.90540370129e-09, No Iterations 3
DILUPBiCG:  Solving for k, Initial residual = 0.0020471690907, Final residual = 2.36869775035e-07, No Iterations 2
uStarMean = 0.480946673693	LMean = 1e+30	phiMMean = 1	Avg iterations = 0
UParallelMeanMag = 5.31788584115	UParallelPMeanMag = 5.3184535335
RwMagMean = 0.231334395597	RwMeanMag = 0.231309702937	sqrt(RwMagMean) = 0.480972343901	sqrt(RwMeanMag) = 0.480946673693	uStarMean = 0.480946673693
DILUPBiCG:  Solving for T, Initial residual = 2.10833224475e-07, Final residual = 2.10833224475e-07, No Iterations 0
   Corrector Step 0...
GAMGPCG:  Solving for p_rgh, Initial residual = 4.9334530425e-05, Final residual = 1.99732994717e-07, No Iterations 1
<U_1> = (6.43045558299 0.0176250519907 -6.98580525237e-06)	<U_s> = (4.2051610492 0.039793724848 0)	<dU/dn> = (0.0890117813516 -0.000886746914293 -5.5886442019e-07)
DILUPBiCG:  Solving for k, Initial residual = 7.847373088e-06, Final residual = 1.91158624772e-08, No Iterations 1
uStarMean = 0.48094667111	LMean = 1e+30	phiMMean = 1	Avg iterations = 0
UParallelMeanMag = 5.31788581259	UParallelPMeanMag = 5.31845348919
RwMagMean = 0.231334392427	RwMeanMag = 0.231309700452	sqrt(RwMagMean) = 0.480972340605	sqrt(RwMeanMag) = 0.48094667111	uStarMean = 0.48094667111
DILUPBiCG:  Solving for T, Initial residual = 1.85481362389e-07, Final residual = 1.85481362389e-07, No Iterations 0
   Corrector Step 1...
GAMGPCG:  Solving for p_rgh, Initial residual = 6.80794039503e-07, Final residual = 6.80794039503e-07, No Iterations 0
<U_1> = (6.43045558299 0.0176250520189 -6.98595651886e-06)	<U_s> = (4.20516104929 0.0397937248748 0)	<dU/dn> = (0.0890117813483 -0.000886746914233 -5.58876521509e-07)
DILUPBiCG:  Solving for k, Initial residual = 8.90727338412e-08, Final residual = 8.90727338412e-08, No Iterations 0
uStarMean = 0.480946671114	LMean = 1e+30	phiMMean = 1	Avg iterations = 0
UParallelMeanMag = 5.31788581263	UParallelPMeanMag = 5.31845348879
RwMagMean = 0.231334392412	RwMeanMag = 0.231309700456	sqrt(RwMagMean) = 0.480972340589	sqrt(RwMeanMag) = 0.480946671114	uStarMean = 0.480946671114
DILUPBiCG:  Solving for T, Initial residual = 2.06265245229e-07, Final residual = 2.06265245229e-07, No Iterations 0
   Corrector Step 2...
GAMGPCG:  Solving for p_rgh, Initial residual = 6.80011927004e-07, Final residual = 6.80011927004e-07, No Iterations 0
<U_1> = (6.430455583 0.0176250520181 -6.98595496782e-06)	<U_s> = (4.20516104931 0.0397937248779 0)	<dU/dn> = (0.0890117813475 -0.000886746914394 -5.58876397425e-07)
DILUPBiCG:  Solving for k, Initial residual = 8.90344657445e-08, Final residual = 8.90344657445e-08, No Iterations 0
uStarMean = 0.480946671116	LMean = 1e+30	phiMMean = 1	Avg iterations = 0
UParallelMeanMag = 5.31788581265	UParallelPMeanMag = 5.31845348881
RwMagMean = 0.231334392413	RwMeanMag = 0.231309700457	sqrt(RwMagMean) = 0.480972340591	sqrt(RwMeanMag) = 0.480946671116	uStarMean = 0.480946671116
DILUPBiCG:  Solving for T, Initial residual = 2.06327372626e-07, Final residual = 2.06327372626e-07, No Iterations 0
<U> at 99.27: (7.99999994774 1.10890236651e-09 1.83225763097e-05) m/s
<U>_desired: (8 0 0) m/s
<U>_error: (-5.22612761955e-08 1.10890236651e-09 1.83225763097e-05) m/s
<U_1> = (6.43045561955 0.0176250512426 -6.98595496782e-06)	<U_s> = (4.20516108588 0.0397937241021 0)	<dU/dn> = (0.0890117813469 -0.000886746914381 -5.58876397425e-07)
Continuity Report:
   -Local Cell Continuity Error:
       minimum: 0
       maximum: 1.17554595046e-06
       weighted mean: 1.13916647092e-09
   -Boundary Flux:
       lower - flux: 0	/ area: 25000000
       upper - flux: 0	/ area: 25000000
       total - flux: 0	/ area: 50000000
ExecutionTime = 543.37 s  ClockTime = 600 s

Time = 237.5	Time Step = 475
Courant Number mean: 0.0792566547656 max: 0.080274761633
PIMPLE: iteration 1
   Predictor...
<U_1> = (6.43045561955 0.0176250512426 -6.98595496782e-06)	<U_s> = (4.20516108588 0.0397937241021 0)	<dU/dn> = (0.0890117813469 -0.000886746914381 -5.58876397425e-07)
DILUPBiCG:  Solving for Ux, Initial residual = 0.000433537606571, Final residual = 3.66209253149e-08, No Iterations 2
DILUPBiCG:  Solving for Uy, Initial residual = 0.0152030433342, Final residual = 6.53121037386e-09, No Iterations 3
DILUPBiCG:  Solving for Uz, Initial residual = 0.0190933832342, Final residual = 5.87922072177e-09, No Iterations 3
DILUPBiCG:  Solving for k, Initial residual = 0.00203570247223, Final residual = 2.35590698844e-07, No Iterations 2
uStarMean = 0.480716994046	LMean = 1e+30	phiMMean = 1	Avg iterations = 0
UParallelMeanMag = 5.31534624536	UParallelPMeanMag = 5.3159126065
RwMagMean = 0.231113451357	RwMeanMag = 0.231088828364	sqrt(RwMagMean) = 0.480742604058	sqrt(RwMeanMag) = 0.480716994046	uStarMean = 0.480716994046
DILUPBiCG:  Solving for T, Initial residual = 2.06092316484e-07, Final residual = 2.06092316484e-07, No Iterations 0
   Corrector Step 0...
GAMGPCG:  Solving for p_rgh, Initial residual = 5.06501383835e-05, Final residual = 1.99004986351e-07, No Iterations 1
<U_1> = (6.42829386421 0.0176857516426 -7.40389879568e-06)	<U_s> = (4.20224260544 0.0398987995279 0)	<dU/dn> = (0.089042050351 -0.000888521915413 -5.92311903654e-07)
DILUPBiCG:  Solving for k, Initial residual = 7.80076314899e-06, Final residual = 1.90267206792e-08, No Iterations 1
uStarMean = 0.480716991453	LMean = 1e+30	phiMMean = 1	Avg iterations = 0
UParallelMeanMag = 5.31534621669	UParallelPMeanMag = 5.31591256585
RwMagMean = 0.231113448343	RwMeanMag = 0.231088825871	sqrt(RwMagMean) = 0.480742600924	sqrt(RwMeanMag) = 0.480716991453	uStarMean = 0.480716991453
DILUPBiCG:  Solving for T, Initial residual = 1.84568920475e-07, Final residual = 1.84568920475e-07, No Iterations 0
   Corrector Step 1...
GAMGPCG:  Solving for p_rgh, Initial residual = 6.99451359414e-07, Final residual = 6.99451359414e-07, No Iterations 0
<U_1> = (6.4282938642 0.017685751641 -7.40477896132e-06)	<U_s> = (4.20224260539 0.0398987994597 0)	<dU/dn> = (0.0890420503524 -0.000888521912747 -5.92382316905e-07)
DILUPBiCG:  Solving for k, Initial residual = 8.84291839601e-08, Final residual = 8.84291839601e-08, No Iterations 0
uStarMean = 0.48071699145	LMean = 1e+30	phiMMean = 1	Avg iterations = 0
UParallelMeanMag = 5.31534621666	UParallelPMeanMag = 5.31591256533
RwMagMean = 0.231113448319	RwMeanMag = 0.231088825868	sqrt(RwMagMean) = 0.480742600899	sqrt(RwMeanMag) = 0.48071699145	uStarMean = 0.48071699145
DILUPBiCG:  Solving for T, Initial residual = 2.06211330831e-07, Final residual = 2.06211330831e-07, No Iterations 0
   Corrector Step 2...
GAMGPCG:  Solving for p_rgh, Initial residual = 6.99312992156e-07, Final residual = 6.99312992156e-07, No Iterations 0
<U_1> = (6.42829386421 0.0176857516413 -7.40478024245e-06)	<U_s> = (4.20224260542 0.0398987994625 0)	<dU/dn> = (0.0890420503516 -0.000888521912845 -5.92382419396e-07)
DILUPBiCG:  Solving for k, Initial residual = 8.83898268443e-08, Final residual = 8.83898268443e-08, No Iterations 0
uStarMean = 0.480716991451	LMean = 1e+30	phiMMean = 1	Avg iterations = 0
UParallelMeanMag = 5.31534621667	UParallelPMeanMag = 5.31591256535
RwMagMean = 0.231113448321	RwMeanMag = 0.23108882587	sqrt(RwMagMean) = 0.4807426009	sqrt(RwMeanMag) = 0.480716991451	uStarMean = 0.480716991451
DILUPBiCG:  Solving for T, Initial residual = 2.06265347383e-07, Final residual = 2.06265347383e-07, No Iterations 0
<U> at 99.27: (7.99999994725 1.13048987973e-09 1.85955243653e-05) m/s
<U>_desired: (8 0 0) m/s
<U>_error: (-5.27499137704e-08 1.13048987973e-09 1.85955243653e-05) m/s
<U_1> = (6.4282939011 0.0176857508507 -7.40478024245e-06)	<U_s> = (4.20224264232 0.0398987986715 0)	<dU/dn> = (0.089042050351 -0.000888521912832 -5.92382419396e-07)
Continuity Report:
   -Local Cell Continuity Error:
       minimum: 2.91038304567e-17
       maximum: 6.1651153132e-07
       weighted mean: 1.17149474294e-09
   -Boundary Flux:
       lower - flux: 0	/ area: 25000000
       upper - flux: 0	/ area: 25000000
       total - flux: 0	/ area: 50000000
ExecutionTime = 544.47 s  ClockTime = 601 s

